  162
jmolscript: load "" {1 1 1} spacegroup "x,y,z" unitcell [{     22.000015     0.000000     0.000000 }, {      0.000000    22.000015     0.000000 }, {      0.000000     0.000000    22.000015 }]
O       1.810000     7.450001    11.620001    32.952756
O       8.090000     6.380001     6.120001    31.113782
Ti      4.990000     8.790001     8.120001    35.257937
O       5.840001     7.630000     6.930000    34.356096
O       3.590000     8.000001     8.930000    37.738434
Ti      6.560000    10.220001     9.930000    33.617497
O       5.350001    10.560001     8.540001    36.179325
O       6.490001     8.450001     9.300001    41.561903
O       8.110001    13.520001    11.120001    37.402453
O       5.760001    10.460001    11.520001    36.273472
O       7.980001    11.140001     9.220001    38.279115
O       8.860001    13.580001     8.140001    31.951329
O       7.140001     5.540001     8.740000    36.850458
Ti      8.090000     4.890000    10.120001    31.895710
O       9.550001     3.650000     9.590001    34.701966
O       4.350001     5.580001    11.110001    36.914550
Ti      5.680000     6.260001    12.430001    32.987843
O       7.180001     5.560000    11.560001    37.166372
O       4.620000     8.020001    11.910001    41.547753
O       6.200000     7.660000    13.710001    40.612908
O       4.430000    10.140001    14.140001    31.413786
Ti     11.910001     6.590000     7.090000    34.169611
O      10.910001     7.980001     6.470000    35.902169
O      10.910001     5.060000     7.290001    36.814839
Ti      7.390000     7.100001     7.710000    32.726987
O       8.910001     8.020001     8.390001    41.344924
Ti      9.650001     8.050000    10.290001    30.397296
O      11.890001     6.790000     8.890001    42.618025
O      10.490001     9.570001     9.440001    40.723551
O       9.480001     6.090000    10.040001    40.411139
Ti      3.450000     7.170000    10.680001    34.778918
O       8.340001     9.000001    11.220001    38.362390
Ti      9.150001     9.330001    12.920001    31.396510
O      10.650001     7.870001    11.910001    38.824127
O       9.720001    11.440001    12.370001    40.364513
O       8.890001     7.910001    14.160001    39.974687
Ti      5.560000     9.370001    12.940001    30.781360
O       7.390000    10.090001    13.630001    42.175840
Ti      7.620001    11.270001    15.100001    35.201158
O      10.750001     9.610001    13.770001    41.387062
O       8.010000    12.860001    14.300001    36.404685
O       9.060001    10.470001    15.780001    38.099570
O      13.690001     7.150001     7.240000    35.874251
Ti     10.100001     9.330001     7.450001    32.791928
O      11.450001    10.670001     7.490001    35.575327
Ti     11.890001    10.910001     9.250001    31.835019
O      13.360001     9.260001     9.420001    39.758074
Ti      9.010000    12.710001     9.540001    37.894105
O      11.010001    12.370001    10.030001    41.335011
Ti     11.460001    12.280001    12.340001    32.072897
O      12.440001    10.790001    11.360001    40.572299
Ti      8.830001    13.100001    12.690001    35.507224
O      10.560001    13.820001    12.870001    34.651548
O      12.180001    11.850001    13.900001    34.636383
O       7.560001     5.460001    15.050001    32.613895
O       9.050001     7.780000    16.560001    35.166052
O      14.370001     5.720000     9.650001    35.705272
Ti     10.850001     4.760000     9.170001    33.291099
O      11.960001     4.780000    10.800001    35.624207
Ti     13.500001     5.530001    11.230001    33.967486
O      13.390001     7.410001    11.150001    42.176405
Ti      7.630000     7.060000    15.370001    33.888637
O      13.210001     5.890000    13.270001    35.873305
Ti     12.030001     7.260001    13.250001    33.619409
O      13.260001     8.800001    13.410001    40.182093
Ti     10.180001     8.630001    15.630001    31.840932
O      11.370001     7.280000    14.920001    35.462225
O      11.760001     9.590001    16.120001    33.592234
Ti     13.820001     7.460001     9.020001    32.262694
Ti     13.590001     9.410001    11.370001    34.910521
O      15.280001     9.760001    11.570001    33.487259
Ti     12.450001    10.080001    14.580001    32.678263
O      15.890001     8.110001     9.440001    29.673174
H      15.890001     8.830001    10.140001     3.284289
H      16.540001     7.420001     9.710001     2.624684
O      15.300001     4.480000    14.350001    27.406166
H      14.580001     5.070000    14.540001     2.595444
H      15.740001     4.190000    15.200001     2.395224
O      16.050001    11.750001    10.190001    28.156526
H      16.480001    12.270001    10.890001     2.495415
H      15.690001    11.010001    10.770001     3.397423
O       7.070001     8.930000    18.340001    28.115283
H       7.930000     8.720001    17.920001     3.118121
H       7.180001     8.580001    19.250001     2.877562
O       6.230001    11.150001    16.310001    32.429668
H       4.710000    10.360001    15.040001     2.816723
H       6.360000    10.830001    17.260001     2.840079
O       7.090000    12.090001     6.520000    27.333967
H       7.340001    13.010001     6.540001     2.217325
H       6.760001    11.820001     7.420001     3.267825
O      14.550001    10.590001    15.010001    27.784145
H      15.230001     9.940001    14.720001     2.491354
H      14.800001    11.390001    14.540001     2.220068
O       3.620000     6.750000    15.520001    27.121302
H       3.110000     7.330001    14.860001     3.420834
H       4.060000     6.190001    14.810001     3.177708
O       1.970000     6.240000     9.040001    28.100255
H       2.030000     6.960001     8.350001     2.611672
H       1.020000     6.180001     9.200000     2.252940
O       7.960001     8.340001     4.120000    27.339320
H       7.860000     7.440000     4.500001     2.645056
H       8.560001     8.790001     4.780000     3.074597
O       5.640000     9.720001     4.550000    28.204529
H       6.030001    10.580001     4.770001     2.827557
H       6.350001     9.160000     4.300000     2.804025
O       3.730000     9.310001     6.340001    28.439950
H       2.800000     9.600001     6.440000     2.229475
H       4.150000     9.670001     5.490000     2.757063
O      13.250001    13.560001    11.730001    28.157268
H      12.880001    14.450001    11.860001     2.090062
H      13.360001    13.450001    10.790001     2.823375
O       6.820000     8.070001    20.990002    27.654450
H       7.140001     8.070001    21.940001     2.948408
H       5.980000     8.510000    21.050002     2.530929
O       5.740000     3.160000    14.900001    26.117585
H       6.190001     3.900000    15.360001     2.812873
H       6.510000     2.760000    14.420001     2.457448
O      12.600001     5.700000     5.110001    28.817520
H      12.480001     4.720000     4.870000     2.340871
H      13.410001     5.950000     4.580001     2.869260
O      15.030001     3.950000    11.790001    28.713317
H      15.200001     3.900000    12.810001     2.919879
H      15.790001     4.470000    11.460001     3.087375
O      17.060001     5.940000    11.270001    27.555439
H      16.880001     6.460001    12.080001     3.243204
H      17.960001     5.540001    11.330001     2.278914
O       8.820000     9.970001     6.290000    32.678645
H       8.290001    10.840001     6.420001     3.273519
H       9.010000     6.210000     6.250000     3.182791
O       8.400001     1.400000     8.090000    27.104641
H       8.130000     1.550000     7.130000     2.536552
H       9.070001     2.060000     8.360000     2.987224
O      14.910001     6.950001     4.420001    27.068100
H      14.900001     7.740000     3.810001     2.548943
H      15.050001     7.310001     5.360000     2.821923
O      16.000001     7.630000    13.420001    28.361614
H      15.130001     7.230001    13.520001     3.362879
H      15.830001     8.420001    12.830001     3.258220
O       4.490000     3.720000     9.220001    27.059550
H       4.490000     4.540001     9.770001     3.208644
H       3.650000     3.300000     9.490001     2.405585
O      13.640001    12.050001     8.710001    28.490952
H      14.580001    11.940001     9.050001     2.835047
H      13.740001    12.420001     7.830001     1.874229
O       7.050000     9.260001     1.560000    28.794046
H       7.290001     9.120001     2.490000     3.015413
H       6.100000     9.590001     1.500000     2.983789
O       7.000001     3.010000     9.970001    29.806679
H       7.250000     2.280000     9.320001     2.872218
H       6.040001     3.200000     9.750001     3.075366
O      12.820001     3.620000     8.740000    29.568686
H      12.770001     3.410000     7.770001     2.567035
H      13.560001     4.350001     9.010000     3.622300
O       2.050000     8.980001    13.980001    27.324289
H       1.860000     7.990001    12.460001     3.128454
H       1.370000     9.430000    14.600001     2.482925
O       5.880001     7.410001    16.430001    30.895032
H       6.030001     7.810001    17.290001     2.811061
H       4.900000     7.340001    16.100001     2.872233
O       4.870000     5.250000    13.750001    31.713573
H       2.830000     9.580001    13.990001     3.074070
H       5.040001     4.310001    14.060001     2.816323
  
   1 O      1.810000     7.450001    11.620001    32.952756
   2 O      8.090000     6.380001     6.120001    31.113782
   3 Ti     4.990000     8.790001     8.120001    35.257937
   4 O      5.840001     7.630000     6.930000    34.356096
   5 O      3.590000     8.000001     8.930000    37.738434
   6 Ti     6.560000    10.220001     9.930000    33.617497
   7 O      5.350001    10.560001     8.540001    36.179325
   8 O      6.490001     8.450001     9.300001    41.561903
   9 O      8.110001    13.520001    11.120001    37.402453
  10 O      5.760001    10.460001    11.520001    36.273472
  11 O      7.980001    11.140001     9.220001    38.279115
  12 O      8.860001    13.580001     8.140001    31.951329
  13 O      7.140001     5.540001     8.740000    36.850458
  14 Ti     8.090000     4.890000    10.120001    31.895710
  15 O      9.550001     3.650000     9.590001    34.701966
  16 O      4.350001     5.580001    11.110001    36.914550
  17 Ti     5.680000     6.260001    12.430001    32.987843
  18 O      7.180001     5.560000    11.560001    37.166372
  19 O      4.620000     8.020001    11.910001    41.547753
  20 O      6.200000     7.660000    13.710001    40.612908
  21 O      4.430000    10.140001    14.140001    31.413786
  22 Ti    11.910001     6.590000     7.090000    34.169611
  23 O     10.910001     7.980001     6.470000    35.902169
  24 O     10.910001     5.060000     7.290001    36.814839
  25 Ti     7.390000     7.100001     7.710000    32.726987
  26 O      8.910001     8.020001     8.390001    41.344924
  27 Ti     9.650001     8.050000    10.290001    30.397296
  28 O     11.890001     6.790000     8.890001    42.618025
  29 O     10.490001     9.570001     9.440001    40.723551
  30 O      9.480001     6.090000    10.040001    40.411139
  31 Ti     3.450000     7.170000    10.680001    34.778918
  32 O      8.340001     9.000001    11.220001    38.362390
  33 Ti     9.150001     9.330001    12.920001    31.396510
  34 O     10.650001     7.870001    11.910001    38.824127
  35 O      9.720001    11.440001    12.370001    40.364513
  36 O      8.890001     7.910001    14.160001    39.974687
  37 Ti     5.560000     9.370001    12.940001    30.781360
  38 O      7.390000    10.090001    13.630001    42.175840
  39 Ti     7.620001    11.270001    15.100001    35.201158
  40 O     10.750001     9.610001    13.770001    41.387062
  41 O      8.010000    12.860001    14.300001    36.404685
  42 O      9.060001    10.470001    15.780001    38.099570
  43 O     13.690001     7.150001     7.240000    35.874251
  44 Ti    10.100001     9.330001     7.450001    32.791928
  45 O     11.450001    10.670001     7.490001    35.575327
  46 Ti    11.890001    10.910001     9.250001    31.835019
  47 O     13.360001     9.260001     9.420001    39.758074
  48 Ti     9.010000    12.710001     9.540001    37.894105
  49 O     11.010001    12.370001    10.030001    41.335011
  50 Ti    11.460001    12.280001    12.340001    32.072897
  51 O     12.440001    10.790001    11.360001    40.572299
  52 Ti     8.830001    13.100001    12.690001    35.507224
  53 O     10.560001    13.820001    12.870001    34.651548
  54 O     12.180001    11.850001    13.900001    34.636383
  55 O      7.560001     5.460001    15.050001    32.613895
  56 O      9.050001     7.780000    16.560001    35.166052
  57 O     14.370001     5.720000     9.650001    35.705272
  58 Ti    10.850001     4.760000     9.170001    33.291099
  59 O     11.960001     4.780000    10.800001    35.624207
  60 Ti    13.500001     5.530001    11.230001    33.967486
  61 O     13.390001     7.410001    11.150001    42.176405
  62 Ti     7.630000     7.060000    15.370001    33.888637
  63 O     13.210001     5.890000    13.270001    35.873305
  64 Ti    12.030001     7.260001    13.250001    33.619409
  65 O     13.260001     8.800001    13.410001    40.182093
  66 Ti    10.180001     8.630001    15.630001    31.840932
  67 O     11.370001     7.280000    14.920001    35.462225
  68 O     11.760001     9.590001    16.120001    33.592234
  69 Ti    13.820001     7.460001     9.020001    32.262694
  70 Ti    13.590001     9.410001    11.370001    34.910521
  71 O     15.280001     9.760001    11.570001    33.487259
  72 Ti    12.450001    10.080001    14.580001    32.678263
  73 O     15.890001     8.110001     9.440001    29.673174
  74 H     15.890001     8.830001    10.140001     3.284289
  75 H     16.540001     7.420001     9.710001     2.624684
  76 O     15.300001     4.480000    14.350001    27.406166
  77 H     14.580001     5.070000    14.540001     2.595444
  78 H     15.740001     4.190000    15.200001     2.395224
  79 O     16.050001    11.750001    10.190001    28.156526
  80 H     16.480001    12.270001    10.890001     2.495415
  81 H     15.690001    11.010001    10.770001     3.397423
  82 O      7.070001     8.930000    18.340001    28.115283
  83 H      7.930000     8.720001    17.920001     3.118121
  84 H      7.180001     8.580001    19.250001     2.877562
  85 O      6.230001    11.150001    16.310001    32.429668
  86 H      4.710000    10.360001    15.040001     2.816723
  87 H      6.360000    10.830001    17.260001     2.840079
  88 O      7.090000    12.090001     6.520000    27.333967
  89 H      7.340001    13.010001     6.540001     2.217325
  90 H      6.760001    11.820001     7.420001     3.267825
  91 O     14.550001    10.590001    15.010001    27.784145
  92 H     15.230001     9.940001    14.720001     2.491354
  93 H     14.800001    11.390001    14.540001     2.220068
  94 O      3.620000     6.750000    15.520001    27.121302
  95 H      3.110000     7.330001    14.860001     3.420834
  96 H      4.060000     6.190001    14.810001     3.177708
  97 O      1.970000     6.240000     9.040001    28.100255
  98 H      2.030000     6.960001     8.350001     2.611672
  99 H      1.020000     6.180001     9.200000     2.252940
 100 O      7.960001     8.340001     4.120000    27.339320
 101 H      7.860000     7.440000     4.500001     2.645056
 102 H      8.560001     8.790001     4.780000     3.074597
 103 O      5.640000     9.720001     4.550000    28.204529
 104 H      6.030001    10.580001     4.770001     2.827557
 105 H      6.350001     9.160000     4.300000     2.804025
 106 O      3.730000     9.310001     6.340001    28.439950
 107 H      2.800000     9.600001     6.440000     2.229475
 108 H      4.150000     9.670001     5.490000     2.757063
 109 O     13.250001    13.560001    11.730001    28.157268
 110 H     12.880001    14.450001    11.860001     2.090062
 111 H     13.360001    13.450001    10.790001     2.823375
 112 O      6.820000     8.070001    20.990002    27.654450
 113 H      7.140001     8.070001    21.940001     2.948408
 114 H      5.980000     8.510000    21.050002     2.530929
 115 O      5.740000     3.160000    14.900001    26.117585
 116 H      6.190001     3.900000    15.360001     2.812873
 117 H      6.510000     2.760000    14.420001     2.457448
 118 O     12.600001     5.700000     5.110001    28.817520
 119 H     12.480001     4.720000     4.870000     2.340871
 120 H     13.410001     5.950000     4.580001     2.869260
 121 O     15.030001     3.950000    11.790001    28.713317
 122 H     15.200001     3.900000    12.810001     2.919879
 123 H     15.790001     4.470000    11.460001     3.087375
 124 O     17.060001     5.940000    11.270001    27.555439
 125 H     16.880001     6.460001    12.080001     3.243204
 126 H     17.960001     5.540001    11.330001     2.278914
 127 O      8.820000     9.970001     6.290000    32.678645
 128 H      8.290001    10.840001     6.420001     3.273519
 129 H      9.010000     6.210000     6.250000     3.182791
 130 O      8.400001     1.400000     8.090000    27.104641
 131 H      8.130000     1.550000     7.130000     2.536552
 132 H      9.070001     2.060000     8.360000     2.987224
 133 O     14.910001     6.950001     4.420001    27.068100
 134 H     14.900001     7.740000     3.810001     2.548943
 135 H     15.050001     7.310001     5.360000     2.821923
 136 O     16.000001     7.630000    13.420001    28.361614
 137 H     15.130001     7.230001    13.520001     3.362879
 138 H     15.830001     8.420001    12.830001     3.258220
 139 O      4.490000     3.720000     9.220001    27.059550
 140 H      4.490000     4.540001     9.770001     3.208644
 141 H      3.650000     3.300000     9.490001     2.405585
 142 O     13.640001    12.050001     8.710001    28.490952
 143 H     14.580001    11.940001     9.050001     2.835047
 144 H     13.740001    12.420001     7.830001     1.874229
 145 O      7.050000     9.260001     1.560000    28.794046
 146 H      7.290001     9.120001     2.490000     3.015413
 147 H      6.100000     9.590001     1.500000     2.983789
 148 O      7.000001     3.010000     9.970001    29.806679
 149 H      7.250000     2.280000     9.320001     2.872218
 150 H      6.040001     3.200000     9.750001     3.075366
 151 O     12.820001     3.620000     8.740000    29.568686
 152 H     12.770001     3.410000     7.770001     2.567035
 153 H     13.560001     4.350001     9.010000     3.622300
 154 O      2.050000     8.980001    13.980001    27.324289
 155 H      1.860000     7.990001    12.460001     3.128454
 156 H      1.370000     9.430000    14.600001     2.482925
 157 O      5.880001     7.410001    16.430001    30.895032
 158 H      6.030001     7.810001    17.290001     2.811061
 159 H      4.900000     7.340001    16.100001     2.872233
 160 O      4.870000     5.250000    13.750001    31.713573
 161 H      2.830000     9.580001    13.990001     3.074070
 162 H      5.040001     4.310001    14.060001     2.816323
