  162
jmolscript: load "" {1 1 1} spacegroup "x,y,z" unitcell [{     22.000015     0.000000     0.000000 }, {      0.000000    22.000015     0.000000 }, {      0.000000     0.000000    22.000015 }]
O       4.000001     6.960001    13.600001    32.177805
O       8.840001     7.000001     7.590000    32.903256
Ti      5.430000     8.950001     9.510001    35.140610
O       6.240000     7.840001     8.260001    35.816427
O       4.570000     7.940000    10.730001    37.051373
Ti      7.020000    10.950001    10.820001    32.237190
O       5.470000    10.960001     9.920001    35.409662
O       7.110001     9.110001    10.310001    39.946382
O       7.420001    12.960001    11.550001    39.023297
O       6.910001    10.490001    12.690001    37.526290
O       8.400001    11.490001     9.610001    40.366179
O       7.800001    14.150001     8.710001    32.129938
O       8.210001     6.330000    10.330001    38.265745
Ti      9.650001     5.420001    10.950001    32.493589
O      11.220001     4.670000    10.010001    35.355171
O       6.560000     5.450000    12.590001    38.409456
Ti      7.900000     6.220001    13.790001    32.775430
O       9.280001     5.450000    12.770001    35.726514
O       6.660000     7.800001    13.140001    39.952066
O       8.790001     7.710000    14.560001    41.239638
O       6.410001     9.470000    15.360001    31.266813
Ti     12.040001     8.290001     7.500001    36.116663
O      10.590001     9.180001     7.060000    36.172054
O      12.070001     6.470000     7.820000    36.005899
Ti      7.960001     7.600001     9.040001    32.634570
O       9.440001     8.830001     9.230001    40.488700
Ti     10.760001     9.000001    10.650001    29.909360
O      12.390001     8.590000     9.260001    43.263519
O      11.000001    10.800001     9.860001    40.264455
O      10.870001     6.960001    10.700001    41.319030
Ti      5.250000     6.830000    12.340001    32.236019
O       9.500001     9.510001    11.880001    36.725458
Ti     10.480001    10.400001    13.210001    31.364631
O      11.930001     9.500001    12.160001    39.985780
O      10.080001    12.150001    12.610001    41.218764
O      11.440001     9.020001    14.470001    41.092415
Ti      7.450001     9.330001    13.910001    31.178799
O       9.060001    10.410001    14.540001    42.896247
Ti      9.170001    11.770001    15.750001    35.287625
O      11.990001    11.260001    14.130001    43.432106
O       8.550000    13.240001    14.840001    35.524415
O      10.840001    11.780001    16.390001    36.308406
O      13.630001     9.270001     6.980000    34.603535
Ti      9.690001    10.460001     8.150001    31.933478
O      10.760001    11.950001     7.630000    36.702784
Ti     11.700001    12.280001     9.150001    33.023972
O      13.350001    11.550001     9.060001    39.892675
Ti      8.590000    13.370001     9.950001    38.615041
O      10.590001    13.580001    10.120001    40.848287
Ti     11.370001    13.640001    12.160001    32.558291
O      12.740001    12.780001    11.320001    40.871705
Ti      8.590000    13.360001    12.980001    35.631377
O       9.570001    14.730001    12.440001    35.485046
O      12.200001    14.060001    13.700001    34.551401
O      11.320001     6.240000    15.160001    31.477687
O      11.130001     8.920001    16.880001    36.931261
O      15.270001     8.090000     8.840001    36.293594
Ti     12.230001     6.130000     9.650001    32.777449
O      13.740001     6.470000    10.690001    36.586473
Ti     14.760001     7.920001    11.120001    31.832760
O      14.460001     9.730001    10.590001    41.077985
Ti     10.520001     7.600001    15.560001    34.466861
O      14.450001     8.270001    12.930001    34.943757
Ti     13.290001     9.470000    13.630001    31.975068
O      14.270001    11.040001    13.050001    39.689011
Ti     11.990001    10.190001    15.970001    33.986419
O      13.690001     9.550001    15.460001    34.805743
O      13.880001    12.660001    15.680001    31.309488
Ti     14.280001     9.540001     8.590000    34.398516
Ti     14.200001    11.540001    11.080001    33.838704
O      15.730001    12.410001    11.080001    32.534376
Ti     13.500001    12.650001    14.090001    35.630834
O      16.120001    10.600001     7.930000    29.933422
H      16.180001    11.610001     8.050000     3.278883
H      16.850001    10.210001     8.530001     3.528420
O      17.170001     9.610001    13.580001    26.999956
H      16.550001    10.330001    13.400001     2.928543
H      16.990001     9.420001    14.530001     2.264280
O      15.990001    13.310001     8.560001    28.391923
H      15.130001    13.460001     8.120001     2.962696
H      15.730001    13.050001     9.490001     3.808960
O       8.740000     9.210001    18.720001    27.257172
H       9.640001     9.150001    18.370001     2.918160
H       8.690001     9.150001    19.670001     2.520298
O       7.790001    11.400001    17.000001    31.302111
H       6.540001    10.250001    15.970001     2.843235
H       8.110001    10.850001    17.750001     3.137741
O       6.040001    12.210001     7.440000    27.949096
H       6.570001    13.100001     7.490001     2.705845
H       5.530001    12.140001     8.280000     2.963512
O      14.990001    13.850001    13.090001    29.550365
H      15.570001    13.460001    12.370001     2.880813
H      15.190001    14.780001    13.210001     1.910286
O       5.350001     5.370000    16.950001    27.792452
H       4.510000     4.880001    16.700001     2.637399
H       6.080001     4.930000    16.480001     3.080890
O       4.430000     5.280000    11.180001    29.274950
H       4.670000     4.350001    11.500001     2.940377
H       4.060000     5.390000    10.280001     2.020150
O       7.770001     8.800001     5.190001    27.628878
H       7.850001     7.900000     5.560000     2.508524
H       7.970000     9.430000     5.930000     3.320659
O       5.090000     9.580001     5.790000    26.463843
H       5.330000    10.530001     5.860000     2.757263
H       5.900000     9.100001     5.530001     2.821485
O       4.110000     9.520001     8.020001    28.545226
H       3.790000    10.420001     8.120001     2.215842
H       4.520000     9.420001     7.070001     2.785890
O      11.660001    15.980001    11.680001    27.325577
H      10.800001    16.390001    11.420001     2.253764
H      11.980001    16.480001    12.460001     2.203214
O       8.250001     9.980001    21.890002    28.146920
H       7.370001     9.630001     0.129987     2.729216
H       8.600001    10.190001     0.779987     3.172571
O       9.830001     3.620000    16.180001    26.414467
H       9.730001     3.650000    17.110001     2.296899
H      10.410001     4.360000    16.020001     2.874911
O      15.970001     5.940000     7.510000    27.275734
H      16.150001     6.050000     6.570001     2.543247
H      15.640001     6.860000     7.860000     3.385927
O      16.800001     7.830001    11.380001    28.979551
H      17.170001     8.150001    12.260001     2.574886
H      17.350001     8.420001    10.700001     3.138303
O      18.080001     9.670001     9.570001    27.696430
H      18.420001    10.600001     9.850001     3.017455
H      18.820002     9.210001     9.080001     2.671463
O       8.130000    10.530001     7.190001    32.868032
H       7.360000    11.200001     7.300001     3.382251
H       9.540001     7.670000     7.300001     3.934375
O       9.050001     3.930000     7.510000    26.932782
H       9.010000     4.920001     7.560001     3.237610
H      10.030001     3.730000     7.450001     2.407235
O      18.170001     7.550000     7.030001    28.004576
H      17.510002     8.260001     6.850001     2.864479
H      17.630001     6.780000     7.410001     3.130422
O      18.420001    12.180001    10.270001    26.835274
H      18.470002    12.770001     9.480001     2.485560
H      17.480001    12.330001    10.620001     3.093998
O       5.570001     3.060000    12.290001    27.906868
H       6.130000     3.840000    12.620001     3.424759
H       5.690001     2.390000    12.990001     2.399738
O      13.350001    13.310001     6.580001    27.859664
H      13.310001    12.330001     6.700000     3.040417
H      12.980001    13.500001     5.720000     2.148576
O       9.600001    10.210001     2.730000    27.847292
H      10.150001    10.820001     3.170000     2.346903
H       9.070001     9.860001     3.460000     3.046590
O       8.680001     3.500000    10.300001    29.185559
H       8.690001     3.560000     9.320001     3.020173
H       7.730001     3.250000    10.690001     2.775354
O      13.870001     4.540001     8.620001    28.149394
H      14.170001     4.020000     9.410001     2.417828
H      14.700001     4.930000     8.250001     2.991569
O       3.920000     7.760001    16.030001    26.113324
H       3.960000     7.170000    14.560001     2.830486
H       4.560000     8.470000    15.890001     2.675934
O       9.290001     6.770001    17.240002    30.339972
H       8.920001     7.480000    17.860002     3.049768
H       8.600001     6.100000    17.040001     2.875957
O       7.670000     5.190001    15.340001    33.108555
H       4.510000     7.130000    16.430001     2.941553
H       8.370001     4.510000    15.540001     3.252806
  
   1 O      4.000001     6.960001    13.600001    32.177805
   2 O      8.840001     7.000001     7.590000    32.903256
   3 Ti     5.430000     8.950001     9.510001    35.140610
   4 O      6.240000     7.840001     8.260001    35.816427
   5 O      4.570000     7.940000    10.730001    37.051373
   6 Ti     7.020000    10.950001    10.820001    32.237190
   7 O      5.470000    10.960001     9.920001    35.409662
   8 O      7.110001     9.110001    10.310001    39.946382
   9 O      7.420001    12.960001    11.550001    39.023297
  10 O      6.910001    10.490001    12.690001    37.526290
  11 O      8.400001    11.490001     9.610001    40.366179
  12 O      7.800001    14.150001     8.710001    32.129938
  13 O      8.210001     6.330000    10.330001    38.265745
  14 Ti     9.650001     5.420001    10.950001    32.493589
  15 O     11.220001     4.670000    10.010001    35.355171
  16 O      6.560000     5.450000    12.590001    38.409456
  17 Ti     7.900000     6.220001    13.790001    32.775430
  18 O      9.280001     5.450000    12.770001    35.726514
  19 O      6.660000     7.800001    13.140001    39.952066
  20 O      8.790001     7.710000    14.560001    41.239638
  21 O      6.410001     9.470000    15.360001    31.266813
  22 Ti    12.040001     8.290001     7.500001    36.116663
  23 O     10.590001     9.180001     7.060000    36.172054
  24 O     12.070001     6.470000     7.820000    36.005899
  25 Ti     7.960001     7.600001     9.040001    32.634570
  26 O      9.440001     8.830001     9.230001    40.488700
  27 Ti    10.760001     9.000001    10.650001    29.909360
  28 O     12.390001     8.590000     9.260001    43.263519
  29 O     11.000001    10.800001     9.860001    40.264455
  30 O     10.870001     6.960001    10.700001    41.319030
  31 Ti     5.250000     6.830000    12.340001    32.236019
  32 O      9.500001     9.510001    11.880001    36.725458
  33 Ti    10.480001    10.400001    13.210001    31.364631
  34 O     11.930001     9.500001    12.160001    39.985780
  35 O     10.080001    12.150001    12.610001    41.218764
  36 O     11.440001     9.020001    14.470001    41.092415
  37 Ti     7.450001     9.330001    13.910001    31.178799
  38 O      9.060001    10.410001    14.540001    42.896247
  39 Ti     9.170001    11.770001    15.750001    35.287625
  40 O     11.990001    11.260001    14.130001    43.432106
  41 O      8.550000    13.240001    14.840001    35.524415
  42 O     10.840001    11.780001    16.390001    36.308406
  43 O     13.630001     9.270001     6.980000    34.603535
  44 Ti     9.690001    10.460001     8.150001    31.933478
  45 O     10.760001    11.950001     7.630000    36.702784
  46 Ti    11.700001    12.280001     9.150001    33.023972
  47 O     13.350001    11.550001     9.060001    39.892675
  48 Ti     8.590000    13.370001     9.950001    38.615041
  49 O     10.590001    13.580001    10.120001    40.848287
  50 Ti    11.370001    13.640001    12.160001    32.558291
  51 O     12.740001    12.780001    11.320001    40.871705
  52 Ti     8.590000    13.360001    12.980001    35.631377
  53 O      9.570001    14.730001    12.440001    35.485046
  54 O     12.200001    14.060001    13.700001    34.551401
  55 O     11.320001     6.240000    15.160001    31.477687
  56 O     11.130001     8.920001    16.880001    36.931261
  57 O     15.270001     8.090000     8.840001    36.293594
  58 Ti    12.230001     6.130000     9.650001    32.777449
  59 O     13.740001     6.470000    10.690001    36.586473
  60 Ti    14.760001     7.920001    11.120001    31.832760
  61 O     14.460001     9.730001    10.590001    41.077985
  62 Ti    10.520001     7.600001    15.560001    34.466861
  63 O     14.450001     8.270001    12.930001    34.943757
  64 Ti    13.290001     9.470000    13.630001    31.975068
  65 O     14.270001    11.040001    13.050001    39.689011
  66 Ti    11.990001    10.190001    15.970001    33.986419
  67 O     13.690001     9.550001    15.460001    34.805743
  68 O     13.880001    12.660001    15.680001    31.309488
  69 Ti    14.280001     9.540001     8.590000    34.398516
  70 Ti    14.200001    11.540001    11.080001    33.838704
  71 O     15.730001    12.410001    11.080001    32.534376
  72 Ti    13.500001    12.650001    14.090001    35.630834
  73 O     16.120001    10.600001     7.930000    29.933422
  74 H     16.180001    11.610001     8.050000     3.278883
  75 H     16.850001    10.210001     8.530001     3.528420
  76 O     17.170001     9.610001    13.580001    26.999956
  77 H     16.550001    10.330001    13.400001     2.928543
  78 H     16.990001     9.420001    14.530001     2.264280
  79 O     15.990001    13.310001     8.560001    28.391923
  80 H     15.130001    13.460001     8.120001     2.962696
  81 H     15.730001    13.050001     9.490001     3.808960
  82 O      8.740000     9.210001    18.720001    27.257172
  83 H      9.640001     9.150001    18.370001     2.918160
  84 H      8.690001     9.150001    19.670001     2.520298
  85 O      7.790001    11.400001    17.000001    31.302111
  86 H      6.540001    10.250001    15.970001     2.843235
  87 H      8.110001    10.850001    17.750001     3.137741
  88 O      6.040001    12.210001     7.440000    27.949096
  89 H      6.570001    13.100001     7.490001     2.705845
  90 H      5.530001    12.140001     8.280000     2.963512
  91 O     14.990001    13.850001    13.090001    29.550365
  92 H     15.570001    13.460001    12.370001     2.880813
  93 H     15.190001    14.780001    13.210001     1.910286
  94 O      5.350001     5.370000    16.950001    27.792452
  95 H      4.510000     4.880001    16.700001     2.637399
  96 H      6.080001     4.930000    16.480001     3.080890
  97 O      4.430000     5.280000    11.180001    29.274950
  98 H      4.670000     4.350001    11.500001     2.940377
  99 H      4.060000     5.390000    10.280001     2.020150
 100 O      7.770001     8.800001     5.190001    27.628878
 101 H      7.850001     7.900000     5.560000     2.508524
 102 H      7.970000     9.430000     5.930000     3.320659
 103 O      5.090000     9.580001     5.790000    26.463843
 104 H      5.330000    10.530001     5.860000     2.757263
 105 H      5.900000     9.100001     5.530001     2.821485
 106 O      4.110000     9.520001     8.020001    28.545226
 107 H      3.790000    10.420001     8.120001     2.215842
 108 H      4.520000     9.420001     7.070001     2.785890
 109 O     11.660001    15.980001    11.680001    27.325577
 110 H     10.800001    16.390001    11.420001     2.253764
 111 H     11.980001    16.480001    12.460001     2.203214
 112 O      8.250001     9.980001    21.890002    28.146920
 113 H      7.370001     9.630001     0.129987     2.729216
 114 H      8.600001    10.190001     0.779987     3.172571
 115 O      9.830001     3.620000    16.180001    26.414467
 116 H      9.730001     3.650000    17.110001     2.296899
 117 H     10.410001     4.360000    16.020001     2.874911
 118 O     15.970001     5.940000     7.510000    27.275734
 119 H     16.150001     6.050000     6.570001     2.543247
 120 H     15.640001     6.860000     7.860000     3.385927
 121 O     16.800001     7.830001    11.380001    28.979551
 122 H     17.170001     8.150001    12.260001     2.574886
 123 H     17.350001     8.420001    10.700001     3.138303
 124 O     18.080001     9.670001     9.570001    27.696430
 125 H     18.420001    10.600001     9.850001     3.017455
 126 H     18.820002     9.210001     9.080001     2.671463
 127 O      8.130000    10.530001     7.190001    32.868032
 128 H      7.360000    11.200001     7.300001     3.382251
 129 H      9.540001     7.670000     7.300001     3.934375
 130 O      9.050001     3.930000     7.510000    26.932782
 131 H      9.010000     4.920001     7.560001     3.237610
 132 H     10.030001     3.730000     7.450001     2.407235
 133 O     18.170001     7.550000     7.030001    28.004576
 134 H     17.510002     8.260001     6.850001     2.864479
 135 H     17.630001     6.780000     7.410001     3.130422
 136 O     18.420001    12.180001    10.270001    26.835274
 137 H     18.470002    12.770001     9.480001     2.485560
 138 H     17.480001    12.330001    10.620001     3.093998
 139 O      5.570001     3.060000    12.290001    27.906868
 140 H      6.130000     3.840000    12.620001     3.424759
 141 H      5.690001     2.390000    12.990001     2.399738
 142 O     13.350001    13.310001     6.580001    27.859664
 143 H     13.310001    12.330001     6.700000     3.040417
 144 H     12.980001    13.500001     5.720000     2.148576
 145 O      9.600001    10.210001     2.730000    27.847292
 146 H     10.150001    10.820001     3.170000     2.346903
 147 H      9.070001     9.860001     3.460000     3.046590
 148 O      8.680001     3.500000    10.300001    29.185559
 149 H      8.690001     3.560000     9.320001     3.020173
 150 H      7.730001     3.250000    10.690001     2.775354
 151 O     13.870001     4.540001     8.620001    28.149394
 152 H     14.170001     4.020000     9.410001     2.417828
 153 H     14.700001     4.930000     8.250001     2.991569
 154 O      3.920000     7.760001    16.030001    26.113324
 155 H      3.960000     7.170000    14.560001     2.830486
 156 H      4.560000     8.470000    15.890001     2.675934
 157 O      9.290001     6.770001    17.240002    30.339972
 158 H      8.920001     7.480000    17.860002     3.049768
 159 H      8.600001     6.100000    17.040001     2.875957
 160 O      7.670000     5.190001    15.340001    33.108555
 161 H      4.510000     7.130000    16.430001     2.941553
 162 H      8.370001     4.510000    15.540001     3.252806
