  162
jmolscript: load "" {1 1 1} spacegroup "x,y,z" unitcell [{  22.000015  0.000000  0.000000 }, {   0.000000 22.000015  0.000000 }, {   0.000000  0.000000 22.000015 }]
O    1.670000  10.780001  12.470001  93.590029
O    6.810001   8.870001   6.940000  48.446054
Ti   4.970000  12.460001   9.210001  27.390350
O    5.170000  11.200001   7.810001  48.529824
O    3.720000  12.020001  10.490001  57.007564
Ti   7.130000  12.970001  10.880001  23.516123
O    5.990001  13.980001   9.680001  46.774160
O    6.470000  11.450001   9.960001  14.117104
O   10.530001  15.360001  12.220001  84.372902
O    6.650001  13.160001  12.600001  32.827461
O    8.740000  13.580001  10.600001  17.621407
O   10.090001  15.770001   9.350001 119.997014
O    5.830000   8.670001   9.530001  32.396797
Ti   6.510000   7.320000  10.550001  21.175424
O    7.310001   5.780000   9.650001  39.511858
O    4.590000   9.670001  12.250001  19.595433
Ti   5.640000   8.890001  13.500001  17.833210
O    6.610001   7.940000  12.400001  17.972498
O    4.050000  12.180001  13.500001  34.792015
O    6.270001  10.580001  14.350001  14.998940
O    5.800001  13.390001  15.550001  39.973836
Ti  10.600001   8.150001   7.040001  18.980381
O    9.920001   9.820001   6.700000  24.173736
O    9.030001   7.040001   7.400000  33.142944
Ti   6.470000   9.970001   8.380001  20.436815
O    8.350001  10.130001   8.960001  12.609367
Ti   9.300001   9.780001  10.700001  14.102399
O   10.920001   8.090000   8.920001  12.964475
O   10.540001  10.880001   9.830001  12.191481
O    8.300001   7.950001  10.310001  14.323881
Ti   3.430000  11.060001  12.090001  32.624211
O    8.680001  10.990001  11.920001  13.051815
Ti   9.580001  11.390001  13.550001  14.851203
O   10.400001   8.880001  11.840001  12.473172
O   11.160001  12.700001  13.020001  13.365592
O    8.890001   9.960001  14.560001  13.236840
Ti   5.780000  12.410001  13.960001  24.244588
O    8.760001  12.560001  14.520001  15.304611
Ti   9.400001  13.580001  16.050001  39.624843
O   11.140001  10.450001  14.220001  13.562537
O   10.500001  14.800001  15.220001  92.296637
O   10.060001  12.370001  17.010002  61.504487
O   12.570001   8.300001   7.080001  66.292575
Ti   9.780001  11.120001   7.950001  21.342836
O   11.530001  11.840001   7.800001  62.887230
Ti  12.180001  11.700001   9.490001  20.222593
O   13.360001   9.840001   9.510001  20.943546
Ti  10.360001  14.570001  10.520001  36.943619
O   11.910001  13.330001  10.240001  30.982871
Ti  13.060001  12.370001  12.880001  20.139898
O   12.790001  10.990001  11.640001  12.058411
Ti  11.270001  14.480001  13.630001  39.793217
O   13.050001  14.150001  13.610001  79.135224
O   13.800001  11.600001  14.310001  45.239633
O    6.570001   8.270001  15.170001  28.958269
O    9.000001   8.730001  16.660001  72.923132
O   13.010001   6.160000   8.860001  37.639776
Ti   8.840001   6.520000   9.180001  27.799981
O   10.270001   5.430000   9.730001  43.813310
Ti  12.000001   5.880001  10.250001  21.694283
O   12.630001   7.620001  10.840001  12.322004
Ti   7.540001   9.630001  15.800001  22.740188
O   11.230001   5.900000  12.160001  27.473194
Ti  11.310001   7.600001  12.750001  20.424206
O   12.920001   8.750001  13.240001  13.670339
Ti  10.280001   8.970000  15.430001  27.959029
O   10.510001   7.440000  14.440001  35.246662
O   12.110001   9.080001  16.150001  83.172499
Ti  12.920001   8.110001   8.780000  22.143931
Ti  13.490001   9.330001  11.400001  17.220507
O   15.200001   9.370001  11.570001  25.867950
Ti  12.850001   9.860001  14.680001  24.875583
O   15.220001   7.800001   9.290001  79.655050
H   15.600001   8.290001  10.040001  22.443057
H   15.410001   6.900000   9.590001  26.359806
O   12.980001   4.420001  13.730001  92.235324
H   12.250001   4.910000  13.320001  15.038781
H   12.670001   3.670000  14.220001 106.356980
O   16.750001  10.900001  12.900001  77.239325
H   17.590002  10.710001  12.460001  50.339418
H   16.120001  10.250001  12.390001  13.015839
O    7.920001  12.070001  18.940001  44.421357
H    8.730001  12.220001  18.390002  14.088567
H    8.030001  11.840001  19.870001  19.112786
O    7.880001  14.360001  16.850001  86.983519
H    6.530001  13.780001  16.070001  14.664619
H    7.700000  13.970001  17.740002  36.942401
O    7.950001  14.980001   8.050000  45.290914
H    8.740000  15.470001   8.370001  26.857334
H    7.260001  14.990001   8.840001  20.100959
O   15.010001   9.360001  15.060001  78.909420
H   15.570001   9.800001  14.390001  18.441872
H   15.340001   8.410001  15.170001  52.253854
O    3.980000  10.770001  17.010002  74.463186
H    3.630000  11.660001  16.670001  18.058162
H    3.610000  10.080001  16.500001  21.733882
O    2.090000   9.090001  15.110001  76.338264
H    1.350000   8.490001  15.230001  85.028560
H    2.820000   8.580001  14.690001  13.925230
O    6.570001  11.950001   5.200000  48.220104
H    5.790000  11.660001   5.650001  28.076523
H    7.250000  12.080001   5.960001   9.490082
O    5.880001  15.300001   6.500001 105.043269
H    6.780000  15.250001   6.870001  24.522154
H    6.100000  15.170001   5.520000  91.097859
O    3.980000  13.840001   7.810001  95.473817
H    3.480000  13.220001   7.260001  75.067738
H    4.730001  14.280001   7.200000  19.946345
O   15.030001  12.940001  11.990001  57.475871
H   15.250001  13.680001  12.600001  61.983252
H   15.660001  12.220001  12.330001  16.480534
O    8.270001  11.730001  21.770002  95.032129
H    8.890001  12.440001  -0.020013  93.581360
H    7.790001  11.550001   0.559987  48.473466
O    6.190001   5.270001  14.690001  88.508705
H    6.790000   4.480000  14.870001  94.964139
H    6.860000   5.940000  14.940001  25.302913
O   10.290001   7.740000   4.920001  68.249163
H   10.090001   6.790000   4.540001  79.002479
H    9.490001   8.340001   4.600000  17.673088
O   13.100001   4.320000  11.000001  78.776346
H   13.220001   4.090000  11.960001  26.769491
H   14.010001   4.390000  10.680001  34.089515
O   15.400001   5.680000  11.190001  61.030956
H   15.320001   6.180001  12.110001  17.031808
H   16.300001   5.260000  11.150001  92.125237
O    8.600001  12.380001   7.310001  25.404899
H    8.490001  13.330001   7.640001   9.939854
H    7.530001   8.210001   6.950001  12.361385
O    6.270001   3.570000  10.780001 120.071429
H    6.950001   4.030000  10.270001  30.354850
H    6.640001   2.930000  11.390001  98.522422
O    8.030001   8.880001   4.190000  78.211778
H    7.370001   9.030001   4.900000  24.365084
H    8.200000   9.750001   3.760000  17.564764
O   14.880001   6.700000  13.680001  60.890916
H   14.280001   5.940000  13.900001  24.651933
H   14.270001   7.530001  13.620001   9.116974
O    2.750000   6.130000  12.240001 101.264272
H    2.000000   6.630000  11.790001  81.867006
H    3.230000   6.720001  12.950001  18.149800
O   14.310001  12.250001   9.430000  80.877039
H   14.750001  11.430001   9.770001  20.303675
H   14.530001  13.050001  10.000001  41.017166
O    8.130000  11.360001   3.070000  56.375070
H    7.470000  11.670001   3.710000  18.323497
H    8.780000  12.050001   3.050000  50.381712
O    5.020000   5.830000  10.810001  51.269278
H    5.440000   4.880001  10.930001  17.214950
H    4.140000   5.980000  11.310001  18.176395
O   11.430001   6.030001   6.480000  74.170026
H   12.300001   5.880001   6.920001  37.651178
H   10.950001   5.280000   6.880001  52.155896
O    3.110000  13.240001  16.450001 125.654890
H    1.560000  10.390001  13.380001  22.981483
H    2.740000  13.430001  15.510001  74.897429
O    6.600000  10.620001  17.220001  34.432445
H    7.000001  11.160001  18.010002  12.943533
H    5.570001  10.860001  17.260001  14.023905
O    4.160000   7.750001  14.110001  28.257887
H    4.010000  13.580001  16.350001  33.830761
H    4.570000   6.990001  14.650001  24.994572
  
    1 O    1.670000  10.780001  12.470001  93.590029
    2 O    6.810001   8.870001   6.940000  48.446054
    3 Ti   4.970000  12.460001   9.210001  27.390350
    4 O    5.170000  11.200001   7.810001  48.529824
    5 O    3.720000  12.020001  10.490001  57.007564
    6 Ti   7.130000  12.970001  10.880001  23.516123
    7 O    5.990001  13.980001   9.680001  46.774160
    8 O    6.470000  11.450001   9.960001  14.117104
    9 O   10.530001  15.360001  12.220001  84.372902
   10 O    6.650001  13.160001  12.600001  32.827461
   11 O    8.740000  13.580001  10.600001  17.621407
   12 O   10.090001  15.770001   9.350001 119.997014
   13 O    5.830000   8.670001   9.530001  32.396797
   14 Ti   6.510000   7.320000  10.550001  21.175424
   15 O    7.310001   5.780000   9.650001  39.511858
   16 O    4.590000   9.670001  12.250001  19.595433
   17 Ti   5.640000   8.890001  13.500001  17.833210
   18 O    6.610001   7.940000  12.400001  17.972498
   19 O    4.050000  12.180001  13.500001  34.792015
   20 O    6.270001  10.580001  14.350001  14.998940
   21 O    5.800001  13.390001  15.550001  39.973836
   22 Ti  10.600001   8.150001   7.040001  18.980381
   23 O    9.920001   9.820001   6.700000  24.173736
   24 O    9.030001   7.040001   7.400000  33.142944
   25 Ti   6.470000   9.970001   8.380001  20.436815
   26 O    8.350001  10.130001   8.960001  12.609367
   27 Ti   9.300001   9.780001  10.700001  14.102399
   28 O   10.920001   8.090000   8.920001  12.964475
   29 O   10.540001  10.880001   9.830001  12.191481
   30 O    8.300001   7.950001  10.310001  14.323881
   31 Ti   3.430000  11.060001  12.090001  32.624211
   32 O    8.680001  10.990001  11.920001  13.051815
   33 Ti   9.580001  11.390001  13.550001  14.851203
   34 O   10.400001   8.880001  11.840001  12.473172
   35 O   11.160001  12.700001  13.020001  13.365592
   36 O    8.890001   9.960001  14.560001  13.236840
   37 Ti   5.780000  12.410001  13.960001  24.244588
   38 O    8.760001  12.560001  14.520001  15.304611
   39 Ti   9.400001  13.580001  16.050001  39.624843
   40 O   11.140001  10.450001  14.220001  13.562537
   41 O   10.500001  14.800001  15.220001  92.296637
   42 O   10.060001  12.370001  17.010002  61.504487
   43 O   12.570001   8.300001   7.080001  66.292575
   44 Ti   9.780001  11.120001   7.950001  21.342836
   45 O   11.530001  11.840001   7.800001  62.887230
   46 Ti  12.180001  11.700001   9.490001  20.222593
   47 O   13.360001   9.840001   9.510001  20.943546
   48 Ti  10.360001  14.570001  10.520001  36.943619
   49 O   11.910001  13.330001  10.240001  30.982871
   50 Ti  13.060001  12.370001  12.880001  20.139898
   51 O   12.790001  10.990001  11.640001  12.058411
   52 Ti  11.270001  14.480001  13.630001  39.793217
   53 O   13.050001  14.150001  13.610001  79.135224
   54 O   13.800001  11.600001  14.310001  45.239633
   55 O    6.570001   8.270001  15.170001  28.958269
   56 O    9.000001   8.730001  16.660001  72.923132
   57 O   13.010001   6.160000   8.860001  37.639776
   58 Ti   8.840001   6.520000   9.180001  27.799981
   59 O   10.270001   5.430000   9.730001  43.813310
   60 Ti  12.000001   5.880001  10.250001  21.694283
   61 O   12.630001   7.620001  10.840001  12.322004
   62 Ti   7.540001   9.630001  15.800001  22.740188
   63 O   11.230001   5.900000  12.160001  27.473194
   64 Ti  11.310001   7.600001  12.750001  20.424206
   65 O   12.920001   8.750001  13.240001  13.670339
   66 Ti  10.280001   8.970000  15.430001  27.959029
   67 O   10.510001   7.440000  14.440001  35.246662
   68 O   12.110001   9.080001  16.150001  83.172499
   69 Ti  12.920001   8.110001   8.780000  22.143931
   70 Ti  13.490001   9.330001  11.400001  17.220507
   71 O   15.200001   9.370001  11.570001  25.867950
   72 Ti  12.850001   9.860001  14.680001  24.875583
   73 O   15.220001   7.800001   9.290001  79.655050
   74 H   15.600001   8.290001  10.040001  22.443057
   75 H   15.410001   6.900000   9.590001  26.359806
   76 O   12.980001   4.420001  13.730001  92.235324
   77 H   12.250001   4.910000  13.320001  15.038781
   78 H   12.670001   3.670000  14.220001 106.356980
   79 O   16.750001  10.900001  12.900001  77.239325
   80 H   17.590002  10.710001  12.460001  50.339418
   81 H   16.120001  10.250001  12.390001  13.015839
   82 O    7.920001  12.070001  18.940001  44.421357
   83 H    8.730001  12.220001  18.390002  14.088567
   84 H    8.030001  11.840001  19.870001  19.112786
   85 O    7.880001  14.360001  16.850001  86.983519
   86 H    6.530001  13.780001  16.070001  14.664619
   87 H    7.700000  13.970001  17.740002  36.942401
   88 O    7.950001  14.980001   8.050000  45.290914
   89 H    8.740000  15.470001   8.370001  26.857334
   90 H    7.260001  14.990001   8.840001  20.100959
   91 O   15.010001   9.360001  15.060001  78.909420
   92 H   15.570001   9.800001  14.390001  18.441872
   93 H   15.340001   8.410001  15.170001  52.253854
   94 O    3.980000  10.770001  17.010002  74.463186
   95 H    3.630000  11.660001  16.670001  18.058162
   96 H    3.610000  10.080001  16.500001  21.733882
   97 O    2.090000   9.090001  15.110001  76.338264
   98 H    1.350000   8.490001  15.230001  85.028560
   99 H    2.820000   8.580001  14.690001  13.925230
  100 O    6.570001  11.950001   5.200000  48.220104
  101 H    5.790000  11.660001   5.650001  28.076523
  102 H    7.250000  12.080001   5.960001   9.490082
  103 O    5.880001  15.300001   6.500001 105.043269
  104 H    6.780000  15.250001   6.870001  24.522154
  105 H    6.100000  15.170001   5.520000  91.097859
  106 O    3.980000  13.840001   7.810001  95.473817
  107 H    3.480000  13.220001   7.260001  75.067738
  108 H    4.730001  14.280001   7.200000  19.946345
  109 O   15.030001  12.940001  11.990001  57.475871
  110 H   15.250001  13.680001  12.600001  61.983252
  111 H   15.660001  12.220001  12.330001  16.480534
  112 O    8.270001  11.730001  21.770002  95.032129
  113 H    8.890001  12.440001  -0.020013  93.581360
  114 H    7.790001  11.550001   0.559987  48.473466
  115 O    6.190001   5.270001  14.690001  88.508705
  116 H    6.790000   4.480000  14.870001  94.964139
  117 H    6.860000   5.940000  14.940001  25.302913
  118 O   10.290001   7.740000   4.920001  68.249163
  119 H   10.090001   6.790000   4.540001  79.002479
  120 H    9.490001   8.340001   4.600000  17.673088
  121 O   13.100001   4.320000  11.000001  78.776346
  122 H   13.220001   4.090000  11.960001  26.769491
  123 H   14.010001   4.390000  10.680001  34.089515
  124 O   15.400001   5.680000  11.190001  61.030956
  125 H   15.320001   6.180001  12.110001  17.031808
  126 H   16.300001   5.260000  11.150001  92.125237
  127 O    8.600001  12.380001   7.310001  25.404899
  128 H    8.490001  13.330001   7.640001   9.939854
  129 H    7.530001   8.210001   6.950001  12.361385
  130 O    6.270001   3.570000  10.780001 120.071429
  131 H    6.950001   4.030000  10.270001  30.354850
  132 H    6.640001   2.930000  11.390001  98.522422
  133 O    8.030001   8.880001   4.190000  78.211778
  134 H    7.370001   9.030001   4.900000  24.365084
  135 H    8.200000   9.750001   3.760000  17.564764
  136 O   14.880001   6.700000  13.680001  60.890916
  137 H   14.280001   5.940000  13.900001  24.651933
  138 H   14.270001   7.530001  13.620001   9.116974
  139 O    2.750000   6.130000  12.240001 101.264272
  140 H    2.000000   6.630000  11.790001  81.867006
  141 H    3.230000   6.720001  12.950001  18.149800
  142 O   14.310001  12.250001   9.430000  80.877039
  143 H   14.750001  11.430001   9.770001  20.303675
  144 H   14.530001  13.050001  10.000001  41.017166
  145 O    8.130000  11.360001   3.070000  56.375070
  146 H    7.470000  11.670001   3.710000  18.323497
  147 H    8.780000  12.050001   3.050000  50.381712
  148 O    5.020000   5.830000  10.810001  51.269278
  149 H    5.440000   4.880001  10.930001  17.214950
  150 H    4.140000   5.980000  11.310001  18.176395
  151 O   11.430001   6.030001   6.480000  74.170026
  152 H   12.300001   5.880001   6.920001  37.651178
  153 H   10.950001   5.280000   6.880001  52.155896
  154 O    3.110000  13.240001  16.450001 125.654890
  155 H    1.560000  10.390001  13.380001  22.981483
  156 H    2.740000  13.430001  15.510001  74.897429
  157 O    6.600000  10.620001  17.220001  34.432445
  158 H    7.000001  11.160001  18.010002  12.943533
  159 H    5.570001  10.860001  17.260001  14.023905
  160 O    4.160000   7.750001  14.110001  28.257887
  161 H    4.010000  13.580001  16.350001  33.830761
  162 H    4.570000   6.990001  14.650001  24.994572
  
 2016/01/08  13:22:07
