  162
jmolscript: load "" {1 1 1} spacegroup "x,y,z" unitcell [{     22.000015     0.000000     0.000000 }, {      0.000000    22.000015     0.000000 }, {      0.000000     0.000000    22.000015 }]
O       1.670000    10.780001    12.470001    31.182717
O       6.810001     8.870001     6.940000    32.538964
Ti      4.970000    12.460001     9.210001    35.022354
O       5.170000    11.200001     7.810001    36.759228
O       3.720000    12.020001    10.490001    37.637909
Ti      7.130000    12.970001    10.880001    34.329573
O       5.990001    13.980001     9.680001    34.889452
O       6.470000    11.450001     9.960001    41.059174
O      10.530001    15.360001    12.220001    36.674793
O       6.650001    13.160001    12.600001    37.497867
O       8.740000    13.580001    10.600001    37.449459
O      10.090001    15.770001     9.350001    32.297719
O       5.830000     8.670001     9.530001    36.334465
Ti      6.510000     7.320000    10.550001    32.476764
O       7.310001     5.780000     9.650001    35.320535
O       4.590000     9.670001    12.250001    39.070558
Ti      5.640000     8.890001    13.500001    31.790923
O       6.610001     7.940000    12.400001    36.507173
O       4.050000    12.180001    13.500001    37.809730
O       6.270001    10.580001    14.350001    42.363515
O       5.800001    13.390001    15.550001    32.664962
Ti     10.600001     8.150001     7.040001    32.256491
O       9.920001     9.820001     6.700000    35.567001
O       9.030001     7.040001     7.400000    36.680077
Ti      6.470000     9.970001     8.380001    31.224622
O       8.350001    10.130001     8.960001    41.228169
Ti      9.300001     9.780001    10.700001    29.593304
O      10.920001     8.090000     8.920001    43.731894
O      10.540001    10.880001     9.830001    40.588345
O       8.300001     7.950001    10.310001    40.151586
Ti      3.430000    11.060001    12.090001    33.897899
O       8.680001    10.990001    11.920001    36.969389
Ti      9.580001    11.390001    13.550001    30.571680
O      10.400001     8.880001    11.840001    37.283662
O      11.160001    12.700001    13.020001    41.023989
O       8.890001     9.960001    14.560001    40.051319
Ti      5.780000    12.410001    13.960001    33.433859
O       8.760001    12.560001    14.520001    38.587181
Ti      9.400001    13.580001    16.050001    36.910791
O      11.140001    10.450001    14.220001    41.684161
O      10.500001    14.800001    15.220001    36.106757
O      10.060001    12.370001    17.010002    35.411016
O      12.570001     8.300001     7.080001    33.745511
Ti      9.780001    11.120001     7.950001    33.736421
O      11.530001    11.840001     7.800001    34.995917
Ti     12.180001    11.700001     9.490001    32.038659
O      13.360001     9.840001     9.510001    38.745666
Ti     10.360001    14.570001    10.520001    35.957936
O      11.910001    13.330001    10.240001    39.347878
Ti     13.060001    12.370001    12.880001    33.816953
O      12.790001    10.990001    11.640001    40.493707
Ti     11.270001    14.480001    13.630001    35.541328
O      13.050001    14.150001    13.610001    35.285064
O      13.800001    11.600001    14.310001    34.680907
O       6.570001     8.270001    15.170001    35.065586
O       9.000001     8.730001    16.660001    33.810432
O      13.010001     6.160000     8.860001    35.026009
Ti      8.840001     6.520000     9.180001    35.205132
O      10.270001     5.430000     9.730001    36.927959
Ti     12.000001     5.880001    10.250001    32.255275
O      12.630001     7.620001    10.840001    42.337200
Ti      7.540001     9.630001    15.800001    32.807861
O      11.230001     5.900000    12.160001    35.103336
Ti     11.310001     7.600001    12.750001    34.398611
O      12.920001     8.750001    13.240001    41.585792
Ti     10.280001     8.970000    15.430001    34.494233
O      10.510001     7.440000    14.440001    35.346135
O      12.110001     9.080001    16.150001    34.155256
Ti     12.920001     8.110001     8.780000    33.637498
Ti     13.490001     9.330001    11.400001    34.397662
O      15.200001     9.370001    11.570001    33.400091
Ti     12.850001     9.860001    14.680001    34.095696
O      15.220001     7.800001     9.290001    29.249852
H      15.600001     8.290001    10.040001     2.920348
H      15.410001     6.900000     9.590001     2.765371
O      12.980001     4.420001    13.730001    27.159391
H      12.250001     4.910000    13.320001     3.093748
H      12.670001     3.670000    14.220001     2.003822
O      16.750001    10.900001    12.900001    27.709643
H      17.590002    10.710001    12.460001     2.320350
H      16.120001    10.250001    12.390001     3.409756
O       7.920001    12.070001    18.940001    27.906255
H       8.730001    12.220001    18.390002     3.301200
H       8.030001    11.840001    19.870001     2.613269
O       7.880001    14.360001    16.850001    30.772813
H       6.530001    13.780001    16.070001     2.954175
H       7.700000    13.970001    17.740002     3.178585
O       7.950001    14.980001     8.050000    27.916815
H       8.740000    15.470001     8.370001     2.802366
H       7.260001    14.990001     8.840001     3.124923
O      15.010001     9.360001    15.060001    28.611206
H      15.570001     9.800001    14.390001     2.970938
H      15.340001     8.410001    15.170001     2.514811
O       3.980000    10.770001    17.010002    27.921360
H       3.630000    11.660001    16.670001     3.154138
H       3.610000    10.080001    16.500001     2.846907
O       2.090000     9.090001    15.110001    28.307123
H       1.350000     8.490001    15.230001     2.333151
H       2.820000     8.580001    14.690001     3.353702
O       6.570001    11.950001     5.200000    28.251800
H       5.790000    11.660001     5.650001     2.590088
H       7.250000    12.080001     5.960001     3.602759
O       5.880001    15.300001     6.500001    27.469166
H       6.780000    15.250001     6.870001     3.015230
H       6.100000    15.170001     5.520000     2.733671
O       3.980000    13.840001     7.810001    27.886114
H       3.480000    13.220001     7.260001     2.288395
H       4.730001    14.280001     7.200000     3.146717
O      15.030001    12.940001    11.990001    28.752730
H      15.250001    13.680001    12.600001     2.104408
H      15.660001    12.220001    12.330001     3.261397
O       8.270001    11.730001    21.770002    27.439157
H       8.890001    12.440001    -0.020013     2.589006
H       7.790001    11.550001     0.559987     2.782176
O       6.190001     5.270001    14.690001    27.680217
H       6.790000     4.480000    14.870001     2.765354
H       6.860000     5.940000    14.940001     2.906517
O      10.290001     7.740000     4.920001    28.507995
H      10.090001     6.790000     4.540001     2.346460
H       9.490001     8.340001     4.600000     3.047558
O      13.100001     4.320000    11.000001    29.098523
H      13.220001     4.090000    11.960001     2.934407
H      14.010001     4.390000    10.680001     2.525315
O      15.400001     5.680000    11.190001    27.958351
H      15.320001     6.180001    12.110001     3.352844
H      16.300001     5.260000    11.150001     2.405560
O       8.600001    12.380001     7.310001    33.619447
H       8.490001    13.330001     7.640001     3.454293
H       7.530001     8.210001     6.950001     3.260081
O       6.270001     3.570000    10.780001    26.813707
H       6.950001     4.030000    10.270001     2.796988
H       6.640001     2.930000    11.390001     2.254288
O       8.030001     8.880001     4.190000    27.441941
H       7.370001     9.030001     4.900000     2.902560
H       8.200000     9.750001     3.760000     2.928204
O      14.880001     6.700000    13.680001    28.198985
H      14.280001     5.940000    13.900001     3.083138
H      14.270001     7.530001    13.620001     3.962117
O       2.750000     6.130000    12.240001    27.248685
H       2.000000     6.630000    11.790001     2.596245
H       3.230000     6.720001    12.950001     3.495433
O      14.310001    12.250001     9.430000    28.109205
H      14.750001    11.430001     9.770001     2.785706
H      14.530001    13.050001    10.000001     2.483007
O       8.130000    11.360001     3.070000    27.430106
H       7.470000    11.670001     3.710000     2.880027
H       8.780000    12.050001     3.050000     2.341105
O       5.020000     5.830000    10.810001    30.816002
H       5.440000     4.880001    10.930001     3.052596
H       4.140000     5.980000    11.310001     3.065336
O      11.430001     6.030001     6.480000    28.507132
H      12.300001     5.880001     6.920001     2.677284
H      10.950001     5.280000     6.880001     2.634484
O       3.110000    13.240001    16.450001    26.753961
H       1.560000    10.390001    13.380001     3.083619
H       2.740000    13.430001    15.510001     2.658689
O       6.600000    10.620001    17.220001    31.149883
H       7.000001    11.160001    18.010002     2.919392
H       5.570001    10.860001    17.260001     2.957088
O       4.160000     7.750001    14.110001    32.041338
H       4.010000    13.580001    16.350001     2.865126
H       4.570000     6.990001    14.650001     2.960043
  
   1 O      1.670000    10.780001    12.470001    31.182717
   2 O      6.810001     8.870001     6.940000    32.538964
   3 Ti     4.970000    12.460001     9.210001    35.022354
   4 O      5.170000    11.200001     7.810001    36.759228
   5 O      3.720000    12.020001    10.490001    37.637909
   6 Ti     7.130000    12.970001    10.880001    34.329573
   7 O      5.990001    13.980001     9.680001    34.889452
   8 O      6.470000    11.450001     9.960001    41.059174
   9 O     10.530001    15.360001    12.220001    36.674793
  10 O      6.650001    13.160001    12.600001    37.497867
  11 O      8.740000    13.580001    10.600001    37.449459
  12 O     10.090001    15.770001     9.350001    32.297719
  13 O      5.830000     8.670001     9.530001    36.334465
  14 Ti     6.510000     7.320000    10.550001    32.476764
  15 O      7.310001     5.780000     9.650001    35.320535
  16 O      4.590000     9.670001    12.250001    39.070558
  17 Ti     5.640000     8.890001    13.500001    31.790923
  18 O      6.610001     7.940000    12.400001    36.507173
  19 O      4.050000    12.180001    13.500001    37.809730
  20 O      6.270001    10.580001    14.350001    42.363515
  21 O      5.800001    13.390001    15.550001    32.664962
  22 Ti    10.600001     8.150001     7.040001    32.256491
  23 O      9.920001     9.820001     6.700000    35.567001
  24 O      9.030001     7.040001     7.400000    36.680077
  25 Ti     6.470000     9.970001     8.380001    31.224622
  26 O      8.350001    10.130001     8.960001    41.228169
  27 Ti     9.300001     9.780001    10.700001    29.593304
  28 O     10.920001     8.090000     8.920001    43.731894
  29 O     10.540001    10.880001     9.830001    40.588345
  30 O      8.300001     7.950001    10.310001    40.151586
  31 Ti     3.430000    11.060001    12.090001    33.897899
  32 O      8.680001    10.990001    11.920001    36.969389
  33 Ti     9.580001    11.390001    13.550001    30.571680
  34 O     10.400001     8.880001    11.840001    37.283662
  35 O     11.160001    12.700001    13.020001    41.023989
  36 O      8.890001     9.960001    14.560001    40.051319
  37 Ti     5.780000    12.410001    13.960001    33.433859
  38 O      8.760001    12.560001    14.520001    38.587181
  39 Ti     9.400001    13.580001    16.050001    36.910791
  40 O     11.140001    10.450001    14.220001    41.684161
  41 O     10.500001    14.800001    15.220001    36.106757
  42 O     10.060001    12.370001    17.010002    35.411016
  43 O     12.570001     8.300001     7.080001    33.745511
  44 Ti     9.780001    11.120001     7.950001    33.736421
  45 O     11.530001    11.840001     7.800001    34.995917
  46 Ti    12.180001    11.700001     9.490001    32.038659
  47 O     13.360001     9.840001     9.510001    38.745666
  48 Ti    10.360001    14.570001    10.520001    35.957936
  49 O     11.910001    13.330001    10.240001    39.347878
  50 Ti    13.060001    12.370001    12.880001    33.816953
  51 O     12.790001    10.990001    11.640001    40.493707
  52 Ti    11.270001    14.480001    13.630001    35.541328
  53 O     13.050001    14.150001    13.610001    35.285064
  54 O     13.800001    11.600001    14.310001    34.680907
  55 O      6.570001     8.270001    15.170001    35.065586
  56 O      9.000001     8.730001    16.660001    33.810432
  57 O     13.010001     6.160000     8.860001    35.026009
  58 Ti     8.840001     6.520000     9.180001    35.205132
  59 O     10.270001     5.430000     9.730001    36.927959
  60 Ti    12.000001     5.880001    10.250001    32.255275
  61 O     12.630001     7.620001    10.840001    42.337200
  62 Ti     7.540001     9.630001    15.800001    32.807861
  63 O     11.230001     5.900000    12.160001    35.103336
  64 Ti    11.310001     7.600001    12.750001    34.398611
  65 O     12.920001     8.750001    13.240001    41.585792
  66 Ti    10.280001     8.970000    15.430001    34.494233
  67 O     10.510001     7.440000    14.440001    35.346135
  68 O     12.110001     9.080001    16.150001    34.155256
  69 Ti    12.920001     8.110001     8.780000    33.637498
  70 Ti    13.490001     9.330001    11.400001    34.397662
  71 O     15.200001     9.370001    11.570001    33.400091
  72 Ti    12.850001     9.860001    14.680001    34.095696
  73 O     15.220001     7.800001     9.290001    29.249852
  74 H     15.600001     8.290001    10.040001     2.920348
  75 H     15.410001     6.900000     9.590001     2.765371
  76 O     12.980001     4.420001    13.730001    27.159391
  77 H     12.250001     4.910000    13.320001     3.093748
  78 H     12.670001     3.670000    14.220001     2.003822
  79 O     16.750001    10.900001    12.900001    27.709643
  80 H     17.590002    10.710001    12.460001     2.320350
  81 H     16.120001    10.250001    12.390001     3.409756
  82 O      7.920001    12.070001    18.940001    27.906255
  83 H      8.730001    12.220001    18.390002     3.301200
  84 H      8.030001    11.840001    19.870001     2.613269
  85 O      7.880001    14.360001    16.850001    30.772813
  86 H      6.530001    13.780001    16.070001     2.954175
  87 H      7.700000    13.970001    17.740002     3.178585
  88 O      7.950001    14.980001     8.050000    27.916815
  89 H      8.740000    15.470001     8.370001     2.802366
  90 H      7.260001    14.990001     8.840001     3.124923
  91 O     15.010001     9.360001    15.060001    28.611206
  92 H     15.570001     9.800001    14.390001     2.970938
  93 H     15.340001     8.410001    15.170001     2.514811
  94 O      3.980000    10.770001    17.010002    27.921360
  95 H      3.630000    11.660001    16.670001     3.154138
  96 H      3.610000    10.080001    16.500001     2.846907
  97 O      2.090000     9.090001    15.110001    28.307123
  98 H      1.350000     8.490001    15.230001     2.333151
  99 H      2.820000     8.580001    14.690001     3.353702
 100 O      6.570001    11.950001     5.200000    28.251800
 101 H      5.790000    11.660001     5.650001     2.590088
 102 H      7.250000    12.080001     5.960001     3.602759
 103 O      5.880001    15.300001     6.500001    27.469166
 104 H      6.780000    15.250001     6.870001     3.015230
 105 H      6.100000    15.170001     5.520000     2.733671
 106 O      3.980000    13.840001     7.810001    27.886114
 107 H      3.480000    13.220001     7.260001     2.288395
 108 H      4.730001    14.280001     7.200000     3.146717
 109 O     15.030001    12.940001    11.990001    28.752730
 110 H     15.250001    13.680001    12.600001     2.104408
 111 H     15.660001    12.220001    12.330001     3.261397
 112 O      8.270001    11.730001    21.770002    27.439157
 113 H      8.890001    12.440001    -0.020013     2.589006
 114 H      7.790001    11.550001     0.559987     2.782176
 115 O      6.190001     5.270001    14.690001    27.680217
 116 H      6.790000     4.480000    14.870001     2.765354
 117 H      6.860000     5.940000    14.940001     2.906517
 118 O     10.290001     7.740000     4.920001    28.507995
 119 H     10.090001     6.790000     4.540001     2.346460
 120 H      9.490001     8.340001     4.600000     3.047558
 121 O     13.100001     4.320000    11.000001    29.098523
 122 H     13.220001     4.090000    11.960001     2.934407
 123 H     14.010001     4.390000    10.680001     2.525315
 124 O     15.400001     5.680000    11.190001    27.958351
 125 H     15.320001     6.180001    12.110001     3.352844
 126 H     16.300001     5.260000    11.150001     2.405560
 127 O      8.600001    12.380001     7.310001    33.619447
 128 H      8.490001    13.330001     7.640001     3.454293
 129 H      7.530001     8.210001     6.950001     3.260081
 130 O      6.270001     3.570000    10.780001    26.813707
 131 H      6.950001     4.030000    10.270001     2.796988
 132 H      6.640001     2.930000    11.390001     2.254288
 133 O      8.030001     8.880001     4.190000    27.441941
 134 H      7.370001     9.030001     4.900000     2.902560
 135 H      8.200000     9.750001     3.760000     2.928204
 136 O     14.880001     6.700000    13.680001    28.198985
 137 H     14.280001     5.940000    13.900001     3.083138
 138 H     14.270001     7.530001    13.620001     3.962117
 139 O      2.750000     6.130000    12.240001    27.248685
 140 H      2.000000     6.630000    11.790001     2.596245
 141 H      3.230000     6.720001    12.950001     3.495433
 142 O     14.310001    12.250001     9.430000    28.109205
 143 H     14.750001    11.430001     9.770001     2.785706
 144 H     14.530001    13.050001    10.000001     2.483007
 145 O      8.130000    11.360001     3.070000    27.430106
 146 H      7.470000    11.670001     3.710000     2.880027
 147 H      8.780000    12.050001     3.050000     2.341105
 148 O      5.020000     5.830000    10.810001    30.816002
 149 H      5.440000     4.880001    10.930001     3.052596
 150 H      4.140000     5.980000    11.310001     3.065336
 151 O     11.430001     6.030001     6.480000    28.507132
 152 H     12.300001     5.880001     6.920001     2.677284
 153 H     10.950001     5.280000     6.880001     2.634484
 154 O      3.110000    13.240001    16.450001    26.753961
 155 H      1.560000    10.390001    13.380001     3.083619
 156 H      2.740000    13.430001    15.510001     2.658689
 157 O      6.600000    10.620001    17.220001    31.149883
 158 H      7.000001    11.160001    18.010002     2.919392
 159 H      5.570001    10.860001    17.260001     2.957088
 160 O      4.160000     7.750001    14.110001    32.041338
 161 H      4.010000    13.580001    16.350001     2.865126
 162 H      4.570000     6.990001    14.650001     2.960043
