  162
jmolscript: load "" {1 1 1} spacegroup "x,y,z" unitcell [{     22.000015     0.000000     0.000000 }, {      0.000000    22.000015     0.000000 }, {      0.000000     0.000000    22.000015 }]
O       7.300001     7.300001    11.000001    38.072522
O       7.810001     9.600001     6.560000    33.378078
Ti      6.410001    11.000001     9.520001    57.425109
O       7.300001    11.900001     8.040001    33.117152
O       7.810001     9.600001     9.520001    39.484029
Ti      6.410001    11.000001    12.480001    57.920174
O       7.300001    11.900001    11.000001    41.533340
O       7.810001     9.600001    12.480001    39.372143
O       7.300001    11.900001    13.960001    34.851450
O       7.810001     9.600001    15.440001    33.721571
O       7.810001    14.190001     9.520001    35.753248
O       7.810001    14.190001    12.480001    36.636151
O       9.600001     7.810001     6.560000    33.032640
Ti     11.000001     6.410001     9.520001    51.091662
O      11.900001     7.300001     8.040001    34.543274
O       9.600001     7.810001     9.520001    40.088760
Ti     11.000001     6.410001    12.480001    47.219308
O      11.900001     7.300001    11.000001    41.953380
O       9.600001     7.810001    12.480001    39.425388
O      11.900001     7.300001    13.960001    35.036856
O       9.600001     7.810001    15.440001    30.742500
Ti     11.000001    11.000001     6.560000    32.585876
O       9.600001    12.400001     6.560000    37.460518
O      12.400001     9.600001     6.560000    37.023975
Ti      8.700000     8.700000     8.040001    37.785383
O      10.100001    10.100001     8.040001    38.785502
Ti     11.000001    11.000001     9.520001    29.971814
O      11.900001    11.900001     8.040001    38.749321
O       9.600001    12.400001     9.520001    38.944367
O      12.400001     9.600001     9.520001    38.820188
Ti      8.700000     8.700000    11.000001    32.198654
O      10.100001    10.100001    11.000001    37.617268
Ti     11.000001    11.000001    12.480001    29.968927
O      11.900001    11.900001    11.000001    37.757218
O       9.600001    12.400001    12.480001    38.665882
O      12.400001     9.600001    12.480001    38.753999
Ti      8.700000     8.700000    13.960001    35.690861
O      10.100001    10.100001    13.960001    39.364777
Ti     11.000001    11.000001    15.440001    32.828372
O      11.900001    11.900001    13.960001    38.903110
O       9.600001    12.400001    15.440001    37.753904
O      12.400001     9.600001    15.440001    37.483112
O      12.400001    14.190001     6.560000    32.001977
Ti      8.700000    13.300001     8.040001    31.168400
O      10.100001    14.700001     8.040001    34.489106
Ti     11.000001    15.590001     9.520001    59.646740
O      12.400001    14.190001     9.520001    39.890113
Ti      8.700000    13.300001    11.000001    30.361874
O      10.100001    14.700001    11.000001    41.798637
Ti     11.000001    15.590001    12.480001    60.885604
O      12.400001    14.190001    12.480001    38.107907
Ti      8.700000    13.300001    13.960001    32.211282
O      10.100001    14.700001    13.960001    34.785422
O      12.400001    14.190001    15.440001    32.201655
O      14.190001     7.810001     9.520001    37.129293
O      14.190001     7.810001    12.480001    37.290545
O      14.190001    12.400001     6.560000    32.090047
Ti     13.300001     8.700000     8.040001    31.542268
O      14.700001    10.100001     8.040001    33.896851
Ti     15.590001    11.000001     9.520001    61.119791
O      14.190001    12.400001     9.520001    39.588428
Ti     13.300001     8.700000    11.000001    30.207725
O      14.700001    10.100001    11.000001    42.001755
Ti     15.590001    11.000001    12.480001    60.410218
O      14.190001    12.400001    12.480001    37.977492
Ti     13.300001     8.700000    13.960001    31.896736
O      14.700001    10.100001    13.960001    34.556248
O      14.190001    12.400001    15.440001    31.783535
Ti     13.300001    13.300001     8.040001    37.047231
Ti     13.300001    13.300001    11.000001    32.530174
O      14.700001    14.700001    11.000001    35.218647
Ti     13.300001    13.300001    13.960001    35.936279
O      15.550001    15.110001     7.030001    28.814815
H      14.980001    14.950001     7.840001     4.005922
H      14.960001    15.210001     6.230001     3.005399
O      17.430001     6.180001     8.560001    27.195765
H      17.760001     7.120001     8.560001     2.970055
H      17.940001     5.640000     9.220001     2.592391
O      17.550002     6.070001     2.310000    28.566788
H      17.430001     5.940000     1.320000     2.975302
H      17.250001     5.260000     2.800000     2.966525
O       8.500001     7.980001    18.230001    28.626249
H       8.460001     8.740000    18.880001     2.872865
H       8.720001     8.340001    17.320002     3.664012
O       6.860000    11.610001    18.030001    27.818625
H       7.460001    12.400001    18.170001     2.925481
H       6.000001    11.920001    17.620001     2.834515
O       3.350000    14.350001    10.610001    29.492475
H       2.570000    14.040001    10.080001     2.944223
H       3.930000    14.930001    10.040001     2.592110
O      14.600001    15.050001    13.390001    29.625431
H      14.840001    15.990001    13.650001     2.191804
H      14.440001    14.510001    14.210001     4.854033
O       4.380000     3.920000    14.990001    28.315778
H       5.200000     3.360000    15.080001     2.881134
H       3.570000     3.340000    15.030001     2.967271
O      16.030001     4.470000     7.370001    29.155718
H      15.290001     4.930000     6.870001     2.935474
H      16.540001     5.150001     7.900000     3.062246
O       2.310000    17.130001     4.830000    27.500349
H       2.650000    17.900001     5.370000     2.739132
H       2.750000    17.130001     3.930000     2.705307
O       2.300000    14.340001     5.380001    29.036505
H       2.040000    15.300001     5.380001     3.372606
H       1.590000    13.800001     5.830000     2.817310
O       2.400000    10.910001     8.860001    29.699808
H       2.540000    10.070001     9.380001     3.584154
H       1.850000    11.550001     9.410001     2.797404
O       6.200000    17.860002    14.390001    28.147176
H       5.280000    17.690001    14.740001     2.931946
H       6.480000    18.780002    14.650001     3.053947
O       6.060000     9.640001     1.230000    28.390487
H       6.130000    10.480001     0.690000     2.694685
H       6.520000     9.770001     2.110000     3.135683
O      15.940001     1.140000    14.800001    28.188377
H      15.760001     1.810000    14.080001     2.869999
H      15.910001     1.600000    15.690001     2.909674
O      18.420001    17.670001     3.590000    28.124984
H      18.960001    17.380001     4.390000     2.957447
H      18.720001    18.570001     3.300000     2.690733
O      16.890001     9.220001     6.120001    29.836664
H      17.840001     8.930000     6.200000     3.062165
H      16.810001     9.870001     5.370000     3.408396
O      16.410001    11.080001     4.320000    26.491640
H      17.270001    11.100001     3.800000     2.694417
H      16.550001    11.550001     5.200000     2.992016
O       6.130000    13.650001     7.260001    28.967135
H       5.640000    12.780001     7.350001     3.220113
H       5.900000    14.080001     6.390000     2.589902
O       8.090000     0.040000     5.020000    28.277386
H       8.490001     0.950000     4.930000     2.918943
H       7.090000     0.120000     5.080001     3.046552
O      15.250001     9.990001     1.900000    28.580378
H      14.620001     9.230001     2.030000     2.779794
H      15.730001    10.170001     2.760000     3.232540
O      11.870001    17.920001    16.160001    28.100594
H      12.110001    18.520001    15.400001     3.182366
H      11.940001    16.970001    15.860001     3.234333
O       3.170000     2.510000    18.010002    28.316082
H       3.880000     3.220000    18.070001     3.038904
H       2.290000     2.900000    18.290001     2.824116
O      16.670001    17.140001     5.720000    29.336078
H      16.260001    16.910001     4.840000     3.296292
H      16.490001    16.400001     6.370000     2.901597
O       5.980000     7.290001     2.700000    28.259589
H       6.220001     7.980001     2.020000     3.143741
H       5.200000     7.620001     3.240000     2.906256
O      12.810001     3.450000     9.440001    29.444784
H      11.950001     2.950000     9.310001     2.961227
H      13.430001     2.910000    10.000001     2.375196
O      15.760001    16.620001     3.070000    28.543596
H      16.650001    17.080001     3.100000     3.406007
H      15.550001    16.380001     2.120000     2.690031
O       8.070001     6.050000    14.650001    29.763822
H       7.600001     6.020000    15.540001     2.554257
H       7.560001     5.500001    13.990001     3.074424
O      13.940001     4.690001    16.740001    28.594427
H      13.740001     5.120000    17.620001     2.712288
H      14.720001     4.070000    16.830001     3.252494
O       9.910001     4.100000    12.420001    31.521343
H       9.140001     4.440000    12.960001     2.704436
H       9.570001     3.590000    11.630001     2.639056
  
   1 O      7.300001     7.300001    11.000001    38.072522
   2 O      7.810001     9.600001     6.560000    33.378078
   3 Ti     6.410001    11.000001     9.520001    57.425109
   4 O      7.300001    11.900001     8.040001    33.117152
   5 O      7.810001     9.600001     9.520001    39.484029
   6 Ti     6.410001    11.000001    12.480001    57.920174
   7 O      7.300001    11.900001    11.000001    41.533340
   8 O      7.810001     9.600001    12.480001    39.372143
   9 O      7.300001    11.900001    13.960001    34.851450
  10 O      7.810001     9.600001    15.440001    33.721571
  11 O      7.810001    14.190001     9.520001    35.753248
  12 O      7.810001    14.190001    12.480001    36.636151
  13 O      9.600001     7.810001     6.560000    33.032640
  14 Ti    11.000001     6.410001     9.520001    51.091662
  15 O     11.900001     7.300001     8.040001    34.543274
  16 O      9.600001     7.810001     9.520001    40.088760
  17 Ti    11.000001     6.410001    12.480001    47.219308
  18 O     11.900001     7.300001    11.000001    41.953380
  19 O      9.600001     7.810001    12.480001    39.425388
  20 O     11.900001     7.300001    13.960001    35.036856
  21 O      9.600001     7.810001    15.440001    30.742500
  22 Ti    11.000001    11.000001     6.560000    32.585876
  23 O      9.600001    12.400001     6.560000    37.460518
  24 O     12.400001     9.600001     6.560000    37.023975
  25 Ti     8.700000     8.700000     8.040001    37.785383
  26 O     10.100001    10.100001     8.040001    38.785502
  27 Ti    11.000001    11.000001     9.520001    29.971814
  28 O     11.900001    11.900001     8.040001    38.749321
  29 O      9.600001    12.400001     9.520001    38.944367
  30 O     12.400001     9.600001     9.520001    38.820188
  31 Ti     8.700000     8.700000    11.000001    32.198654
  32 O     10.100001    10.100001    11.000001    37.617268
  33 Ti    11.000001    11.000001    12.480001    29.968927
  34 O     11.900001    11.900001    11.000001    37.757218
  35 O      9.600001    12.400001    12.480001    38.665882
  36 O     12.400001     9.600001    12.480001    38.753999
  37 Ti     8.700000     8.700000    13.960001    35.690861
  38 O     10.100001    10.100001    13.960001    39.364777
  39 Ti    11.000001    11.000001    15.440001    32.828372
  40 O     11.900001    11.900001    13.960001    38.903110
  41 O      9.600001    12.400001    15.440001    37.753904
  42 O     12.400001     9.600001    15.440001    37.483112
  43 O     12.400001    14.190001     6.560000    32.001977
  44 Ti     8.700000    13.300001     8.040001    31.168400
  45 O     10.100001    14.700001     8.040001    34.489106
  46 Ti    11.000001    15.590001     9.520001    59.646740
  47 O     12.400001    14.190001     9.520001    39.890113
  48 Ti     8.700000    13.300001    11.000001    30.361874
  49 O     10.100001    14.700001    11.000001    41.798637
  50 Ti    11.000001    15.590001    12.480001    60.885604
  51 O     12.400001    14.190001    12.480001    38.107907
  52 Ti     8.700000    13.300001    13.960001    32.211282
  53 O     10.100001    14.700001    13.960001    34.785422
  54 O     12.400001    14.190001    15.440001    32.201655
  55 O     14.190001     7.810001     9.520001    37.129293
  56 O     14.190001     7.810001    12.480001    37.290545
  57 O     14.190001    12.400001     6.560000    32.090047
  58 Ti    13.300001     8.700000     8.040001    31.542268
  59 O     14.700001    10.100001     8.040001    33.896851
  60 Ti    15.590001    11.000001     9.520001    61.119791
  61 O     14.190001    12.400001     9.520001    39.588428
  62 Ti    13.300001     8.700000    11.000001    30.207725
  63 O     14.700001    10.100001    11.000001    42.001755
  64 Ti    15.590001    11.000001    12.480001    60.410218
  65 O     14.190001    12.400001    12.480001    37.977492
  66 Ti    13.300001     8.700000    13.960001    31.896736
  67 O     14.700001    10.100001    13.960001    34.556248
  68 O     14.190001    12.400001    15.440001    31.783535
  69 Ti    13.300001    13.300001     8.040001    37.047231
  70 Ti    13.300001    13.300001    11.000001    32.530174
  71 O     14.700001    14.700001    11.000001    35.218647
  72 Ti    13.300001    13.300001    13.960001    35.936279
  73 O     15.550001    15.110001     7.030001    28.814815
  74 H     14.980001    14.950001     7.840001     4.005922
  75 H     14.960001    15.210001     6.230001     3.005399
  76 O     17.430001     6.180001     8.560001    27.195765
  77 H     17.760001     7.120001     8.560001     2.970055
  78 H     17.940001     5.640000     9.220001     2.592391
  79 O     17.550002     6.070001     2.310000    28.566788
  80 H     17.430001     5.940000     1.320000     2.975302
  81 H     17.250001     5.260000     2.800000     2.966525
  82 O      8.500001     7.980001    18.230001    28.626249
  83 H      8.460001     8.740000    18.880001     2.872865
  84 H      8.720001     8.340001    17.320002     3.664012
  85 O      6.860000    11.610001    18.030001    27.818625
  86 H      7.460001    12.400001    18.170001     2.925481
  87 H      6.000001    11.920001    17.620001     2.834515
  88 O      3.350000    14.350001    10.610001    29.492475
  89 H      2.570000    14.040001    10.080001     2.944223
  90 H      3.930000    14.930001    10.040001     2.592110
  91 O     14.600001    15.050001    13.390001    29.625431
  92 H     14.840001    15.990001    13.650001     2.191804
  93 H     14.440001    14.510001    14.210001     4.854033
  94 O      4.380000     3.920000    14.990001    28.315778
  95 H      5.200000     3.360000    15.080001     2.881134
  96 H      3.570000     3.340000    15.030001     2.967271
  97 O     16.030001     4.470000     7.370001    29.155718
  98 H     15.290001     4.930000     6.870001     2.935474
  99 H     16.540001     5.150001     7.900000     3.062246
 100 O      2.310000    17.130001     4.830000    27.500349
 101 H      2.650000    17.900001     5.370000     2.739132
 102 H      2.750000    17.130001     3.930000     2.705307
 103 O      2.300000    14.340001     5.380001    29.036505
 104 H      2.040000    15.300001     5.380001     3.372606
 105 H      1.590000    13.800001     5.830000     2.817310
 106 O      2.400000    10.910001     8.860001    29.699808
 107 H      2.540000    10.070001     9.380001     3.584154
 108 H      1.850000    11.550001     9.410001     2.797404
 109 O      6.200000    17.860002    14.390001    28.147176
 110 H      5.280000    17.690001    14.740001     2.931946
 111 H      6.480000    18.780002    14.650001     3.053947
 112 O      6.060000     9.640001     1.230000    28.390487
 113 H      6.130000    10.480001     0.690000     2.694685
 114 H      6.520000     9.770001     2.110000     3.135683
 115 O     15.940001     1.140000    14.800001    28.188377
 116 H     15.760001     1.810000    14.080001     2.869999
 117 H     15.910001     1.600000    15.690001     2.909674
 118 O     18.420001    17.670001     3.590000    28.124984
 119 H     18.960001    17.380001     4.390000     2.957447
 120 H     18.720001    18.570001     3.300000     2.690733
 121 O     16.890001     9.220001     6.120001    29.836664
 122 H     17.840001     8.930000     6.200000     3.062165
 123 H     16.810001     9.870001     5.370000     3.408396
 124 O     16.410001    11.080001     4.320000    26.491640
 125 H     17.270001    11.100001     3.800000     2.694417
 126 H     16.550001    11.550001     5.200000     2.992016
 127 O      6.130000    13.650001     7.260001    28.967135
 128 H      5.640000    12.780001     7.350001     3.220113
 129 H      5.900000    14.080001     6.390000     2.589902
 130 O      8.090000     0.040000     5.020000    28.277386
 131 H      8.490001     0.950000     4.930000     2.918943
 132 H      7.090000     0.120000     5.080001     3.046552
 133 O     15.250001     9.990001     1.900000    28.580378
 134 H     14.620001     9.230001     2.030000     2.779794
 135 H     15.730001    10.170001     2.760000     3.232540
 136 O     11.870001    17.920001    16.160001    28.100594
 137 H     12.110001    18.520001    15.400001     3.182366
 138 H     11.940001    16.970001    15.860001     3.234333
 139 O      3.170000     2.510000    18.010002    28.316082
 140 H      3.880000     3.220000    18.070001     3.038904
 141 H      2.290000     2.900000    18.290001     2.824116
 142 O     16.670001    17.140001     5.720000    29.336078
 143 H     16.260001    16.910001     4.840000     3.296292
 144 H     16.490001    16.400001     6.370000     2.901597
 145 O      5.980000     7.290001     2.700000    28.259589
 146 H      6.220001     7.980001     2.020000     3.143741
 147 H      5.200000     7.620001     3.240000     2.906256
 148 O     12.810001     3.450000     9.440001    29.444784
 149 H     11.950001     2.950000     9.310001     2.961227
 150 H     13.430001     2.910000    10.000001     2.375196
 151 O     15.760001    16.620001     3.070000    28.543596
 152 H     16.650001    17.080001     3.100000     3.406007
 153 H     15.550001    16.380001     2.120000     2.690031
 154 O      8.070001     6.050000    14.650001    29.763822
 155 H      7.600001     6.020000    15.540001     2.554257
 156 H      7.560001     5.500001    13.990001     3.074424
 157 O     13.940001     4.690001    16.740001    28.594427
 158 H     13.740001     5.120000    17.620001     2.712288
 159 H     14.720001     4.070000    16.830001     3.252494
 160 O      9.910001     4.100000    12.420001    31.521343
 161 H      9.140001     4.440000    12.960001     2.704436
 162 H      9.570001     3.590000    11.630001     2.639056
