  162
jmolscript: load "" {1 1 1} spacegroup "x,y,z" unitcell [{     22.000015     0.000000     0.000000 }, {      0.000000    22.000015     0.000000 }, {      0.000000     0.000000    22.000015 }]
O       4.730001     6.120001    12.920001    32.081998
O       8.200000     9.680001     6.640001    33.183824
Ti      5.470000     9.930000    10.180001    34.146988
O       6.000001     9.160000     8.470000    36.199566
O       5.080001     8.460001    11.060001    37.794990
Ti      7.310001    11.580001    11.490001    31.239672
O       5.580001    11.590001    11.200001    33.712830
O       7.360000    10.210001    10.160001    40.998903
O       7.870001    12.960001    12.850001    38.897545
O       7.270001    10.210001    13.000001    36.972776
O       8.290001    12.830001    10.480001    39.327550
O       7.790001    15.640001    10.910001    32.589233
O       8.740000     7.780000     8.950001    39.206476
Ti     10.140001     6.710000     9.490001    32.406161
O      11.640001     6.470000     8.360000    34.726461
O       7.230001     5.680000    11.380001    36.978443
Ti      8.590000     6.090000    12.540001    33.168573
O       9.930000     6.380001    11.180001    36.201288
O       7.210000     7.370001    13.150001    39.622688
O       9.700000     7.400000    13.640001    40.959396
O       7.780000     8.600001    15.600001    30.201529
Ti     11.830001    10.680001     6.730001    35.683445
O      10.330001    11.750001     6.640001    36.654387
O      11.840001     8.790001     6.660000    37.023338
Ti      7.900000     9.350001     8.500001    32.137795
O       9.500001    10.540001     8.830001    41.780871
Ti     10.930001    10.290001    10.330001    30.271439
O      12.440001    10.530001     8.480001    42.856154
O      11.040001    12.230001    10.080001    39.842189
O      11.180001     8.460001     9.830001    38.998953
Ti      5.850001     6.870001    11.870001    35.929777
O       9.850001    10.220001    11.780001    37.460758
Ti     11.170001    10.680001    13.130001    32.594553
O      12.400001    10.470001    11.630001    38.652815
O      10.610001    12.540001    13.080001    41.722086
O      11.990001     9.040001    13.880001    41.115228
Ti      8.260001     8.910001    13.730001    31.647628
O       9.680001    10.180001    14.640001    42.610403
Ti      9.990001    10.960001    16.310001    33.962587
O      12.870001    11.310001    14.210001    43.421143
O       9.300001    12.580001    15.980001    36.239759
O      11.690001    10.640001    16.560001    37.854161
O      13.360001    11.460001     6.350001    36.062697
Ti      9.510001    12.480001     8.170001    33.619696
O      10.550001    14.080001     8.310001    35.648653
Ti     11.610001    13.850001     9.750001    32.762467
O      13.430001    13.370001     9.080001    40.522488
Ti      8.680001    14.330001    11.510001    37.524012
O      10.540001    14.730001    11.130001    39.432598
Ti     11.560001    14.390001    12.860001    32.904176
O      12.840001    13.690001    11.640001    41.092166
Ti      9.180001    13.130001    14.180001    35.157602
O       9.660001    14.810001    13.730001    36.624427
O      12.530001    14.350001    14.380001    35.926768
O      12.340001     6.060000    13.760001    30.043015
O      12.630001     7.860000    15.950001    35.547378
O      15.100001    10.220001     7.870001    36.222835
Ti     12.370001     8.110001     8.350001    33.977134
O      14.070001     8.270001     9.000001    36.596817
Ti     15.330001     9.460001     9.660001    30.907860
O      14.930001    11.350001     9.870001    40.265280
Ti     11.480001     7.140001    14.570001    33.594516
O      15.030001     9.350001    11.450001    36.064922
Ti     14.090001    10.290001    12.860001    32.739380
O      14.750001    11.920001    12.600001    38.004519
Ti     13.050001     9.520001    15.490001    33.046084
O      14.640001     9.630001    14.530001    35.947128
O      14.620001    13.070001    15.860001    31.339832
Ti     14.050001    11.650001     8.120001    33.108283
Ti     14.470001    12.900001    10.780001    34.376487
O      15.600001    14.080001    11.000001    30.965218
Ti     14.000001    13.010001    14.310001    35.014952
O      15.440001    13.190001     7.140001    29.307648
H      15.180001    14.120001     7.100001     2.010056
H      15.760001    12.900001     6.240000     3.188171
O      18.040001     9.000001    12.040001    27.675298
H      18.340001     8.540001    12.850001     2.259774
H      17.060001     9.010000    12.060001     3.378268
O      18.290001    13.610001     4.860000    27.174293
H      17.340001    13.640001     4.730001     2.956782
H      18.390002    14.230001     5.630000     2.635627
O       7.910001    10.600001    19.750001    27.655677
H       8.380001    10.070001    20.480001     3.213648
H       6.960001    10.750001    20.010002     2.446757
O       8.840001     9.880001    17.360001    31.380214
H       8.180001     9.100001    16.490001     2.997601
H       8.400001    10.000001    18.260001     2.948605
O       6.220001    14.910001     8.790001    27.430030
H       6.100000    15.710001     8.220001     2.519752
H       6.490001    15.340001     9.640001     3.100406
O      15.300001    14.480001    13.600001    30.446181
H      15.780001    15.140001    14.170001     2.619674
H      15.560001    14.460001    12.600001     2.908090
O       6.270001     4.680000    14.690001    28.315318
H       5.540001     4.970000    14.080001     2.846795
H       6.940000     4.120000    14.250001     2.860622
O       5.370000     6.070001     9.370001    27.947220
H       5.330000     6.970000     8.950001     3.113059
H       4.490000     5.710000     9.160000     2.269947
O       8.900001    12.610001     4.450000    27.928238
H       9.350001    12.200001     5.230001     3.164341
H       8.470000    13.380001     4.840000     2.518515
O       5.610001    11.550001     6.410001    27.733055
H       5.790000    10.590001     6.290000     2.606182
H       6.490001    12.000001     6.690001     3.469027
O       4.130000    11.110001     8.950001    28.629520
H       3.790000    11.890001     9.410001     2.034071
H       4.610000    11.290001     8.060001     3.112405
O      11.790001    16.520001    12.710001    27.086845
H      10.880001    16.880001    12.640001     2.227324
H      12.160001    17.020001    13.490001     2.062654
O       9.390001     9.710001     0.100000    27.906557
H       9.210001    10.510001     0.760000     3.534085
H      10.330001     9.790001    21.850015     2.627547
O      11.770001     3.580001    14.110001    27.708124
H      12.330001     3.200000    14.800001     2.419576
H      11.960001     4.560000    14.100001     3.260734
O      16.920001     9.950001     3.230000    27.961154
H      16.380001     9.380001     3.890000     3.195252
H      17.160001     9.380001     2.470000     2.380307
O      17.360001     9.320001     9.410001    30.196310
H      17.890002     9.180001    10.240001     2.790038
H      17.800001    10.050001     8.760001     2.863981
O      18.270001    11.200001     7.990001    26.254527
H      17.440001    11.700001     8.150001     3.159568
H      18.250001    11.030001     7.010000     2.979723
O       7.950001    13.080001     7.550000    31.433360
H       7.620001    13.780001     8.170001     3.248636
H       9.050001    10.010001     6.370000     3.300619
O       8.560001     6.270001     6.370000    26.715096
H       8.570001     7.250000     6.410001     3.137231
H       9.420001     6.000001     6.010000     2.237833
O      18.530001    10.710001     5.310001    28.305731
H      18.790001    11.630001     5.020000     3.015203
H      17.970002    10.380001     4.560000     3.252747
O      16.000001    15.480001    15.970001    27.459158
H      15.490001    14.660001    16.100001     3.048907
H      15.520001    16.170001    16.480001     2.525701
O       2.430000     3.410000    18.700002    27.968652
H       1.720000     4.010000    18.360002     2.974789
H       3.020000     3.320000    17.920001     2.896859
O      15.620001    12.220001     4.620000    28.343759
H      16.140001    11.580001     4.080001     3.163858
H      14.800001    11.730001     4.850001     3.012223
O       8.070001    11.580001     1.930000    28.115406
H       8.190001    11.810001     2.890000     3.020780
H       7.870001    12.420001     1.470000     2.738301
O       8.930000     5.060000     8.730001    28.634506
H       8.690001     5.480000     7.820000     3.043036
H       8.090000     5.120000     9.280001     2.703115
O      15.660001     9.090001     5.350001    27.668403
H      15.470001     9.570001     6.210000     3.319809
H      14.830001     8.580001     5.170000     2.663736
O       7.830001     6.160000    16.200001    26.144726
H       7.610001     5.900000    17.130001     2.101147
H       7.730001     7.640001    15.860001     2.886223
O      10.430001     5.710000    15.830001    29.815455
H      10.510001     4.830000    15.410001     3.239271
H       9.450001     5.830000    15.930001     3.030453
O       8.990001     4.560000    13.590001    33.001467
H       7.270001     5.650001    15.550001     3.004986
H       9.810001     4.050000    13.700001     2.893417
  
   1 O      4.730001     6.120001    12.920001    32.081998
   2 O      8.200000     9.680001     6.640001    33.183824
   3 Ti     5.470000     9.930000    10.180001    34.146988
   4 O      6.000001     9.160000     8.470000    36.199566
   5 O      5.080001     8.460001    11.060001    37.794990
   6 Ti     7.310001    11.580001    11.490001    31.239672
   7 O      5.580001    11.590001    11.200001    33.712830
   8 O      7.360000    10.210001    10.160001    40.998903
   9 O      7.870001    12.960001    12.850001    38.897545
  10 O      7.270001    10.210001    13.000001    36.972776
  11 O      8.290001    12.830001    10.480001    39.327550
  12 O      7.790001    15.640001    10.910001    32.589233
  13 O      8.740000     7.780000     8.950001    39.206476
  14 Ti    10.140001     6.710000     9.490001    32.406161
  15 O     11.640001     6.470000     8.360000    34.726461
  16 O      7.230001     5.680000    11.380001    36.978443
  17 Ti     8.590000     6.090000    12.540001    33.168573
  18 O      9.930000     6.380001    11.180001    36.201288
  19 O      7.210000     7.370001    13.150001    39.622688
  20 O      9.700000     7.400000    13.640001    40.959396
  21 O      7.780000     8.600001    15.600001    30.201529
  22 Ti    11.830001    10.680001     6.730001    35.683445
  23 O     10.330001    11.750001     6.640001    36.654387
  24 O     11.840001     8.790001     6.660000    37.023338
  25 Ti     7.900000     9.350001     8.500001    32.137795
  26 O      9.500001    10.540001     8.830001    41.780871
  27 Ti    10.930001    10.290001    10.330001    30.271439
  28 O     12.440001    10.530001     8.480001    42.856154
  29 O     11.040001    12.230001    10.080001    39.842189
  30 O     11.180001     8.460001     9.830001    38.998953
  31 Ti     5.850001     6.870001    11.870001    35.929777
  32 O      9.850001    10.220001    11.780001    37.460758
  33 Ti    11.170001    10.680001    13.130001    32.594553
  34 O     12.400001    10.470001    11.630001    38.652815
  35 O     10.610001    12.540001    13.080001    41.722086
  36 O     11.990001     9.040001    13.880001    41.115228
  37 Ti     8.260001     8.910001    13.730001    31.647628
  38 O      9.680001    10.180001    14.640001    42.610403
  39 Ti     9.990001    10.960001    16.310001    33.962587
  40 O     12.870001    11.310001    14.210001    43.421143
  41 O      9.300001    12.580001    15.980001    36.239759
  42 O     11.690001    10.640001    16.560001    37.854161
  43 O     13.360001    11.460001     6.350001    36.062697
  44 Ti     9.510001    12.480001     8.170001    33.619696
  45 O     10.550001    14.080001     8.310001    35.648653
  46 Ti    11.610001    13.850001     9.750001    32.762467
  47 O     13.430001    13.370001     9.080001    40.522488
  48 Ti     8.680001    14.330001    11.510001    37.524012
  49 O     10.540001    14.730001    11.130001    39.432598
  50 Ti    11.560001    14.390001    12.860001    32.904176
  51 O     12.840001    13.690001    11.640001    41.092166
  52 Ti     9.180001    13.130001    14.180001    35.157602
  53 O      9.660001    14.810001    13.730001    36.624427
  54 O     12.530001    14.350001    14.380001    35.926768
  55 O     12.340001     6.060000    13.760001    30.043015
  56 O     12.630001     7.860000    15.950001    35.547378
  57 O     15.100001    10.220001     7.870001    36.222835
  58 Ti    12.370001     8.110001     8.350001    33.977134
  59 O     14.070001     8.270001     9.000001    36.596817
  60 Ti    15.330001     9.460001     9.660001    30.907860
  61 O     14.930001    11.350001     9.870001    40.265280
  62 Ti    11.480001     7.140001    14.570001    33.594516
  63 O     15.030001     9.350001    11.450001    36.064922
  64 Ti    14.090001    10.290001    12.860001    32.739380
  65 O     14.750001    11.920001    12.600001    38.004519
  66 Ti    13.050001     9.520001    15.490001    33.046084
  67 O     14.640001     9.630001    14.530001    35.947128
  68 O     14.620001    13.070001    15.860001    31.339832
  69 Ti    14.050001    11.650001     8.120001    33.108283
  70 Ti    14.470001    12.900001    10.780001    34.376487
  71 O     15.600001    14.080001    11.000001    30.965218
  72 Ti    14.000001    13.010001    14.310001    35.014952
  73 O     15.440001    13.190001     7.140001    29.307648
  74 H     15.180001    14.120001     7.100001     2.010056
  75 H     15.760001    12.900001     6.240000     3.188171
  76 O     18.040001     9.000001    12.040001    27.675298
  77 H     18.340001     8.540001    12.850001     2.259774
  78 H     17.060001     9.010000    12.060001     3.378268
  79 O     18.290001    13.610001     4.860000    27.174293
  80 H     17.340001    13.640001     4.730001     2.956782
  81 H     18.390002    14.230001     5.630000     2.635627
  82 O      7.910001    10.600001    19.750001    27.655677
  83 H      8.380001    10.070001    20.480001     3.213648
  84 H      6.960001    10.750001    20.010002     2.446757
  85 O      8.840001     9.880001    17.360001    31.380214
  86 H      8.180001     9.100001    16.490001     2.997601
  87 H      8.400001    10.000001    18.260001     2.948605
  88 O      6.220001    14.910001     8.790001    27.430030
  89 H      6.100000    15.710001     8.220001     2.519752
  90 H      6.490001    15.340001     9.640001     3.100406
  91 O     15.300001    14.480001    13.600001    30.446181
  92 H     15.780001    15.140001    14.170001     2.619674
  93 H     15.560001    14.460001    12.600001     2.908090
  94 O      6.270001     4.680000    14.690001    28.315318
  95 H      5.540001     4.970000    14.080001     2.846795
  96 H      6.940000     4.120000    14.250001     2.860622
  97 O      5.370000     6.070001     9.370001    27.947220
  98 H      5.330000     6.970000     8.950001     3.113059
  99 H      4.490000     5.710000     9.160000     2.269947
 100 O      8.900001    12.610001     4.450000    27.928238
 101 H      9.350001    12.200001     5.230001     3.164341
 102 H      8.470000    13.380001     4.840000     2.518515
 103 O      5.610001    11.550001     6.410001    27.733055
 104 H      5.790000    10.590001     6.290000     2.606182
 105 H      6.490001    12.000001     6.690001     3.469027
 106 O      4.130000    11.110001     8.950001    28.629520
 107 H      3.790000    11.890001     9.410001     2.034071
 108 H      4.610000    11.290001     8.060001     3.112405
 109 O     11.790001    16.520001    12.710001    27.086845
 110 H     10.880001    16.880001    12.640001     2.227324
 111 H     12.160001    17.020001    13.490001     2.062654
 112 O      9.390001     9.710001     0.100000    27.906557
 113 H      9.210001    10.510001     0.760000     3.534085
 114 H     10.330001     9.790001    21.850015     2.627547
 115 O     11.770001     3.580001    14.110001    27.708124
 116 H     12.330001     3.200000    14.800001     2.419576
 117 H     11.960001     4.560000    14.100001     3.260734
 118 O     16.920001     9.950001     3.230000    27.961154
 119 H     16.380001     9.380001     3.890000     3.195252
 120 H     17.160001     9.380001     2.470000     2.380307
 121 O     17.360001     9.320001     9.410001    30.196310
 122 H     17.890002     9.180001    10.240001     2.790038
 123 H     17.800001    10.050001     8.760001     2.863981
 124 O     18.270001    11.200001     7.990001    26.254527
 125 H     17.440001    11.700001     8.150001     3.159568
 126 H     18.250001    11.030001     7.010000     2.979723
 127 O      7.950001    13.080001     7.550000    31.433360
 128 H      7.620001    13.780001     8.170001     3.248636
 129 H      9.050001    10.010001     6.370000     3.300619
 130 O      8.560001     6.270001     6.370000    26.715096
 131 H      8.570001     7.250000     6.410001     3.137231
 132 H      9.420001     6.000001     6.010000     2.237833
 133 O     18.530001    10.710001     5.310001    28.305731
 134 H     18.790001    11.630001     5.020000     3.015203
 135 H     17.970002    10.380001     4.560000     3.252747
 136 O     16.000001    15.480001    15.970001    27.459158
 137 H     15.490001    14.660001    16.100001     3.048907
 138 H     15.520001    16.170001    16.480001     2.525701
 139 O      2.430000     3.410000    18.700002    27.968652
 140 H      1.720000     4.010000    18.360002     2.974789
 141 H      3.020000     3.320000    17.920001     2.896859
 142 O     15.620001    12.220001     4.620000    28.343759
 143 H     16.140001    11.580001     4.080001     3.163858
 144 H     14.800001    11.730001     4.850001     3.012223
 145 O      8.070001    11.580001     1.930000    28.115406
 146 H      8.190001    11.810001     2.890000     3.020780
 147 H      7.870001    12.420001     1.470000     2.738301
 148 O      8.930000     5.060000     8.730001    28.634506
 149 H      8.690001     5.480000     7.820000     3.043036
 150 H      8.090000     5.120000     9.280001     2.703115
 151 O     15.660001     9.090001     5.350001    27.668403
 152 H     15.470001     9.570001     6.210000     3.319809
 153 H     14.830001     8.580001     5.170000     2.663736
 154 O      7.830001     6.160000    16.200001    26.144726
 155 H      7.610001     5.900000    17.130001     2.101147
 156 H      7.730001     7.640001    15.860001     2.886223
 157 O     10.430001     5.710000    15.830001    29.815455
 158 H     10.510001     4.830000    15.410001     3.239271
 159 H      9.450001     5.830000    15.930001     3.030453
 160 O      8.990001     4.560000    13.590001    33.001467
 161 H      7.270001     5.650001    15.550001     3.004986
 162 H      9.810001     4.050000    13.700001     2.893417
