  162
jmolscript: load "" {1 1 1} spacegroup "x,y,z" unitcell [{     22.000015     0.000000     0.000000 }, {      0.000000    22.000015     0.000000 }, {      0.000000     0.000000    22.000015 }]
O       2.870000    13.220001    12.970001    32.425903
O       7.360000    12.310001     6.650001    33.171639
Ti      6.220001    15.120001    10.020001    34.406820
O       6.650001    14.500001     8.270001    37.468574
O       4.600000    14.780001    10.940001    37.208546
Ti      8.540001    15.090001    11.610001    33.270793
O       7.260001    16.300001    10.930001    35.082686
O       7.360000    13.840001    10.660001    41.924485
O      12.450001    16.580001    12.740001    37.238486
O       8.190001    14.800001    13.440001    36.975388
O       9.960001    16.090001    11.030001    37.183984
O      11.680001    18.380001    10.480001    31.365771
O       6.700000    11.360001     9.120001    37.406228
Ti      7.250000     9.870001    10.120001    32.407837
O       8.020001     8.450001     9.230001    34.165217
O       5.490000    12.180001    12.410001    40.890885
Ti      6.340001    10.760001    13.380001    32.643483
O       6.930000     9.820001    11.890001    35.400034
O       5.290000    14.460001    13.930001    37.684328
O       7.370001    12.090001    14.580001    41.376668
O       7.240000    14.520001    16.100001    30.773577
Ti     10.430001    10.770001     6.140000    34.246601
O      10.440001    12.600001     6.180001    36.145132
O       9.180001     9.470000     6.850001    37.341043
Ti      7.480000    12.840001     8.360000    32.422359
O       9.270001    12.990001     8.600001    41.013570
Ti     10.330001    12.160001    10.130001    30.070289
O      11.040001    10.730001     8.030001    43.395326
O      11.690001    13.300001     9.360001    40.677710
O       9.200000    10.610001     9.870001    41.047781
Ti      4.550000    13.760001    12.510001    34.756081
O       9.910001    13.310001    11.490001    38.635028
Ti     10.960001    12.360001    13.080001    31.522390
O      11.440001    11.220001    11.430001    38.243399
O      12.760001    13.610001    12.700001    41.051201
O       9.720001    11.020001    13.350001    38.814222
Ti      7.050000    13.920001    14.400001    33.809016
O      10.560001    13.310001    14.810001    42.495009
Ti     11.500001    14.150001    16.160001    35.764237
O      12.460001    11.440001    14.020001    43.377579
O      13.000001    15.000001    15.380001    37.233201
O      12.120001    12.670001    17.090002    35.197940
O      12.100001    10.190001     5.700000    34.736089
Ti     10.880001    13.750001     7.470000    32.978466
O      12.580001    14.330001     7.330001    34.835001
Ti     13.290001    14.150001     9.070001    32.273989
O      14.010001    11.550001     7.940000    38.538739
Ti     11.880001    16.830001    10.990001    35.795666
O      13.000001    15.800001     9.810001    37.808692
Ti     14.570001    13.070001    12.310001    32.574436
O      14.440001    13.110001    10.260001    40.158120
Ti     13.240001    15.210001    13.510001    35.581735
O      14.960001    14.740001    12.970001    33.149813
O      15.140001    12.020001    13.700001    34.163169
O       7.710000     9.670001    14.610001    33.971042
O      10.440001    10.460001    16.140001    37.415032
O      13.390001     8.470000     7.580001    36.443708
Ti      9.660001     9.230001     8.590000    34.513977
O      10.870001     7.860000     9.010000    37.632863
Ti     12.680001     7.820000     9.210001    33.211603
O      13.010001     9.820001     9.670001    43.612152
Ti      8.820000    10.890001    15.130001    33.149054
O      12.900001     7.700000    10.980001    34.992680
Ti     12.520001     9.540001    11.690001    31.207963
O      14.140001    10.810001    11.760001    42.226154
Ti     12.080001    11.240001    15.950001    35.925589
O      13.300001     9.020001    13.300001    36.069120
O      13.690001    10.390001    15.900001    34.596832
Ti     12.820001    10.210001     7.550000    36.061541
Ti     14.590001    11.170001     9.930000    35.739614
O      16.110001    10.490001     9.650001    33.008866
Ti     14.220001    10.500001    14.060001    30.900895
O      14.540001     6.530001     9.040001    28.867506
H      15.370001     6.800001     9.550001     2.953347
H      14.710001     6.360000     8.090000     2.155558
O      14.960001     6.650001    13.350001    27.500695
H      14.810001     5.930000    14.010001     2.308959
H      14.180001     7.270001    13.360001     2.979899
O      17.390001    12.660001     8.670001    28.145105
H      17.900001    12.460001     7.840001     2.318649
H      16.910001    11.810001     8.860001     3.403367
O       9.590001    12.110001    18.810002    28.174075
H      10.470001    12.370001    18.560001     2.961100
H       9.500001    12.330001    19.780002     2.942952
O      10.230001    15.130001    17.060001    32.189592
H       8.080001    14.560001    16.610001     2.814222
H      10.100001    16.020001    17.520001     2.174762
O       9.060001    17.260001     8.820000    27.937383
H       9.810001    17.900001     8.810001     2.552261
H       9.210001    16.780002     9.720001     3.718858
O      15.960001     9.380001    13.680001    30.109756
H      15.750001     8.460001    13.590001     3.125656
H      16.650001     9.630001    12.940001     3.051488
O       5.410000    11.840001    17.330001    28.089231
H       5.300001    12.760001    17.030001     3.265140
H       4.990000    11.850001    18.230001     2.415610
O       5.470000     8.680001    16.620001    26.674277
H       6.110001     9.190001    17.170001     2.777654
H       6.020000     8.180001    16.030001     2.429996
O       7.420001    15.610001     5.790000    27.008102
H       6.820000    15.290001     6.530001     3.040172
H       8.300001    15.590001     6.190001     2.780743
O       6.640001    18.110001     7.450001    27.114932
H       7.340001    17.770001     8.090000     3.113291
H       6.760001    17.510002     6.630000     3.127456
O       5.090000    16.590002     8.900001    28.502662
H       4.340000    17.130001     9.160000     2.010433
H       5.510000    17.100001     8.150001     3.019712
O      16.660001    13.070001    11.510001    28.815861
H      17.210001    12.390001    11.950001     2.510447
H      16.780002    13.200001    10.540001     2.775366
O       9.550001    12.550001    21.530002    26.254200
H       8.720001    12.850001    -0.020013     2.828129
H       9.450001    11.590001    21.770002     2.599719
O      10.620001     8.840001    12.090001    29.196252
H      10.060001     9.540001    12.570001     3.147935
H      10.470001     7.930000    12.460001     1.889242
O       9.140001    10.740001     4.490000    29.078067
H       8.290001    10.280001     4.610000     2.619408
H       8.970000    11.450001     3.820000     2.732777
O      11.970001     5.560000     8.310001    27.669824
H      12.010001     5.180000     7.480000     1.966775
H      11.110001     5.930000     8.420001     2.488756
O      16.500001     7.130000    10.890001    27.017781
H      16.320001     6.720001    11.790001     2.735243
H      15.990001     7.950001    10.960001     3.212907
O       9.820001    15.270001     7.050000    32.012811
H       9.710001    15.950001     7.780000     3.548339
H       7.820000    12.660001     5.890000     3.195194
O       4.180000     9.440001     7.560001    27.454962
H       3.490000     8.770001     7.430000     2.396734
H       4.820000     9.470000     6.850001     3.015537
O       8.700000    12.740001     2.780000    27.617015
H       9.420001    13.350001     2.440000     2.509315
H       7.950001    13.300001     3.080000     2.918849
O      17.650001    10.070001    11.850001    27.332251
H      18.360002     9.360001    11.950001     2.424199
H      17.180001    10.010001    10.940001     3.401032
O       3.290000    10.320001    11.280001    26.352456
H       3.630000    10.630001    12.180001     3.336047
H       3.230000    11.190001    10.830001     2.710668
O      15.140001    14.630001     7.860000    27.313437
H      14.930001    14.070001     7.070001     2.397384
H      15.940001    14.180001     8.280000     2.913272
O       6.690001    14.200001     3.780000    27.998638
H       6.910001    14.920001     4.530000     3.035360
H       5.910000    13.760001     4.170000     2.567099
O       5.260000     9.140001    10.000001    29.524153
H       4.950000     9.280001     9.070001     3.019348
H       4.620000     9.600001    10.630001     2.939864
O       6.370000     9.890001     5.970000    27.045410
H       6.570001    10.770001     6.440000     3.259735
H       7.040001     9.420001     6.450001     2.795351
O       4.510000    14.270001    16.630001    27.657464
H       2.250000    12.600001    13.460001     2.174634
H       5.370000    14.750001    16.530001     2.984648
O       8.090000    11.140001    17.030001    30.198938
H       8.760001    11.370001    17.730001     2.863449
H       7.320000    11.760001    17.130001     3.268634
O       4.870000     9.990001    14.190001    31.691285
H       4.120000    14.350001    15.690001     2.903837
H       4.990000     9.600001    15.140001     3.145578
  
   1 O      2.870000    13.220001    12.970001    32.425903
   2 O      7.360000    12.310001     6.650001    33.171639
   3 Ti     6.220001    15.120001    10.020001    34.406820
   4 O      6.650001    14.500001     8.270001    37.468574
   5 O      4.600000    14.780001    10.940001    37.208546
   6 Ti     8.540001    15.090001    11.610001    33.270793
   7 O      7.260001    16.300001    10.930001    35.082686
   8 O      7.360000    13.840001    10.660001    41.924485
   9 O     12.450001    16.580001    12.740001    37.238486
  10 O      8.190001    14.800001    13.440001    36.975388
  11 O      9.960001    16.090001    11.030001    37.183984
  12 O     11.680001    18.380001    10.480001    31.365771
  13 O      6.700000    11.360001     9.120001    37.406228
  14 Ti     7.250000     9.870001    10.120001    32.407837
  15 O      8.020001     8.450001     9.230001    34.165217
  16 O      5.490000    12.180001    12.410001    40.890885
  17 Ti     6.340001    10.760001    13.380001    32.643483
  18 O      6.930000     9.820001    11.890001    35.400034
  19 O      5.290000    14.460001    13.930001    37.684328
  20 O      7.370001    12.090001    14.580001    41.376668
  21 O      7.240000    14.520001    16.100001    30.773577
  22 Ti    10.430001    10.770001     6.140000    34.246601
  23 O     10.440001    12.600001     6.180001    36.145132
  24 O      9.180001     9.470000     6.850001    37.341043
  25 Ti     7.480000    12.840001     8.360000    32.422359
  26 O      9.270001    12.990001     8.600001    41.013570
  27 Ti    10.330001    12.160001    10.130001    30.070289
  28 O     11.040001    10.730001     8.030001    43.395326
  29 O     11.690001    13.300001     9.360001    40.677710
  30 O      9.200000    10.610001     9.870001    41.047781
  31 Ti     4.550000    13.760001    12.510001    34.756081
  32 O      9.910001    13.310001    11.490001    38.635028
  33 Ti    10.960001    12.360001    13.080001    31.522390
  34 O     11.440001    11.220001    11.430001    38.243399
  35 O     12.760001    13.610001    12.700001    41.051201
  36 O      9.720001    11.020001    13.350001    38.814222
  37 Ti     7.050000    13.920001    14.400001    33.809016
  38 O     10.560001    13.310001    14.810001    42.495009
  39 Ti    11.500001    14.150001    16.160001    35.764237
  40 O     12.460001    11.440001    14.020001    43.377579
  41 O     13.000001    15.000001    15.380001    37.233201
  42 O     12.120001    12.670001    17.090002    35.197940
  43 O     12.100001    10.190001     5.700000    34.736089
  44 Ti    10.880001    13.750001     7.470000    32.978466
  45 O     12.580001    14.330001     7.330001    34.835001
  46 Ti    13.290001    14.150001     9.070001    32.273989
  47 O     14.010001    11.550001     7.940000    38.538739
  48 Ti    11.880001    16.830001    10.990001    35.795666
  49 O     13.000001    15.800001     9.810001    37.808692
  50 Ti    14.570001    13.070001    12.310001    32.574436
  51 O     14.440001    13.110001    10.260001    40.158120
  52 Ti    13.240001    15.210001    13.510001    35.581735
  53 O     14.960001    14.740001    12.970001    33.149813
  54 O     15.140001    12.020001    13.700001    34.163169
  55 O      7.710000     9.670001    14.610001    33.971042
  56 O     10.440001    10.460001    16.140001    37.415032
  57 O     13.390001     8.470000     7.580001    36.443708
  58 Ti     9.660001     9.230001     8.590000    34.513977
  59 O     10.870001     7.860000     9.010000    37.632863
  60 Ti    12.680001     7.820000     9.210001    33.211603
  61 O     13.010001     9.820001     9.670001    43.612152
  62 Ti     8.820000    10.890001    15.130001    33.149054
  63 O     12.900001     7.700000    10.980001    34.992680
  64 Ti    12.520001     9.540001    11.690001    31.207963
  65 O     14.140001    10.810001    11.760001    42.226154
  66 Ti    12.080001    11.240001    15.950001    35.925589
  67 O     13.300001     9.020001    13.300001    36.069120
  68 O     13.690001    10.390001    15.900001    34.596832
  69 Ti    12.820001    10.210001     7.550000    36.061541
  70 Ti    14.590001    11.170001     9.930000    35.739614
  71 O     16.110001    10.490001     9.650001    33.008866
  72 Ti    14.220001    10.500001    14.060001    30.900895
  73 O     14.540001     6.530001     9.040001    28.867506
  74 H     15.370001     6.800001     9.550001     2.953347
  75 H     14.710001     6.360000     8.090000     2.155558
  76 O     14.960001     6.650001    13.350001    27.500695
  77 H     14.810001     5.930000    14.010001     2.308959
  78 H     14.180001     7.270001    13.360001     2.979899
  79 O     17.390001    12.660001     8.670001    28.145105
  80 H     17.900001    12.460001     7.840001     2.318649
  81 H     16.910001    11.810001     8.860001     3.403367
  82 O      9.590001    12.110001    18.810002    28.174075
  83 H     10.470001    12.370001    18.560001     2.961100
  84 H      9.500001    12.330001    19.780002     2.942952
  85 O     10.230001    15.130001    17.060001    32.189592
  86 H      8.080001    14.560001    16.610001     2.814222
  87 H     10.100001    16.020001    17.520001     2.174762
  88 O      9.060001    17.260001     8.820000    27.937383
  89 H      9.810001    17.900001     8.810001     2.552261
  90 H      9.210001    16.780002     9.720001     3.718858
  91 O     15.960001     9.380001    13.680001    30.109756
  92 H     15.750001     8.460001    13.590001     3.125656
  93 H     16.650001     9.630001    12.940001     3.051488
  94 O      5.410000    11.840001    17.330001    28.089231
  95 H      5.300001    12.760001    17.030001     3.265140
  96 H      4.990000    11.850001    18.230001     2.415610
  97 O      5.470000     8.680001    16.620001    26.674277
  98 H      6.110001     9.190001    17.170001     2.777654
  99 H      6.020000     8.180001    16.030001     2.429996
 100 O      7.420001    15.610001     5.790000    27.008102
 101 H      6.820000    15.290001     6.530001     3.040172
 102 H      8.300001    15.590001     6.190001     2.780743
 103 O      6.640001    18.110001     7.450001    27.114932
 104 H      7.340001    17.770001     8.090000     3.113291
 105 H      6.760001    17.510002     6.630000     3.127456
 106 O      5.090000    16.590002     8.900001    28.502662
 107 H      4.340000    17.130001     9.160000     2.010433
 108 H      5.510000    17.100001     8.150001     3.019712
 109 O     16.660001    13.070001    11.510001    28.815861
 110 H     17.210001    12.390001    11.950001     2.510447
 111 H     16.780002    13.200001    10.540001     2.775366
 112 O      9.550001    12.550001    21.530002    26.254200
 113 H      8.720001    12.850001    -0.020013     2.828129
 114 H      9.450001    11.590001    21.770002     2.599719
 115 O     10.620001     8.840001    12.090001    29.196252
 116 H     10.060001     9.540001    12.570001     3.147935
 117 H     10.470001     7.930000    12.460001     1.889242
 118 O      9.140001    10.740001     4.490000    29.078067
 119 H      8.290001    10.280001     4.610000     2.619408
 120 H      8.970000    11.450001     3.820000     2.732777
 121 O     11.970001     5.560000     8.310001    27.669824
 122 H     12.010001     5.180000     7.480000     1.966775
 123 H     11.110001     5.930000     8.420001     2.488756
 124 O     16.500001     7.130000    10.890001    27.017781
 125 H     16.320001     6.720001    11.790001     2.735243
 126 H     15.990001     7.950001    10.960001     3.212907
 127 O      9.820001    15.270001     7.050000    32.012811
 128 H      9.710001    15.950001     7.780000     3.548339
 129 H      7.820000    12.660001     5.890000     3.195194
 130 O      4.180000     9.440001     7.560001    27.454962
 131 H      3.490000     8.770001     7.430000     2.396734
 132 H      4.820000     9.470000     6.850001     3.015537
 133 O      8.700000    12.740001     2.780000    27.617015
 134 H      9.420001    13.350001     2.440000     2.509315
 135 H      7.950001    13.300001     3.080000     2.918849
 136 O     17.650001    10.070001    11.850001    27.332251
 137 H     18.360002     9.360001    11.950001     2.424199
 138 H     17.180001    10.010001    10.940001     3.401032
 139 O      3.290000    10.320001    11.280001    26.352456
 140 H      3.630000    10.630001    12.180001     3.336047
 141 H      3.230000    11.190001    10.830001     2.710668
 142 O     15.140001    14.630001     7.860000    27.313437
 143 H     14.930001    14.070001     7.070001     2.397384
 144 H     15.940001    14.180001     8.280000     2.913272
 145 O      6.690001    14.200001     3.780000    27.998638
 146 H      6.910001    14.920001     4.530000     3.035360
 147 H      5.910000    13.760001     4.170000     2.567099
 148 O      5.260000     9.140001    10.000001    29.524153
 149 H      4.950000     9.280001     9.070001     3.019348
 150 H      4.620000     9.600001    10.630001     2.939864
 151 O      6.370000     9.890001     5.970000    27.045410
 152 H      6.570001    10.770001     6.440000     3.259735
 153 H      7.040001     9.420001     6.450001     2.795351
 154 O      4.510000    14.270001    16.630001    27.657464
 155 H      2.250000    12.600001    13.460001     2.174634
 156 H      5.370000    14.750001    16.530001     2.984648
 157 O      8.090000    11.140001    17.030001    30.198938
 158 H      8.760001    11.370001    17.730001     2.863449
 159 H      7.320000    11.760001    17.130001     3.268634
 160 O      4.870000     9.990001    14.190001    31.691285
 161 H      4.120000    14.350001    15.690001     2.903837
 162 H      4.990000     9.600001    15.140001     3.145578
