  162
jmolscript: load "" {1 1 1} spacegroup "x,y,z" unitcell [{     22.000015     0.000000     0.000000 }, {      0.000000    22.000015     0.000000 }, {      0.000000     0.000000    22.000015 }]
O       1.200000     8.040001    11.850001    31.665139
O       7.310001     6.620001     6.900000    31.986599
Ti      4.530000     9.800001     8.830001    33.561461
O       5.290000     8.740000     7.580001    35.710715
O       3.080000     9.190001     9.870001    36.579431
Ti      6.760001    10.680001    10.440001    32.972718
O       5.450000    11.360001     9.390001    35.719131
O       6.080001     9.080001     9.900001    41.656549
O       8.310001    13.660001    11.460001    36.326121
O       6.130000    11.080001    12.140001    37.039424
O       8.260001    11.340001     9.560001    40.159926
O       9.320001    13.870001     8.720001    31.752993
O       6.180001     6.210000     9.290001    36.650209
Ti      7.030001     5.230001    10.550001    31.615726
O       8.330001     3.870000    10.040001    34.869798
O       4.170000     7.020000    11.840001    39.354960
Ti      5.320000     6.460001    13.280001    32.428270
O       6.570001     5.510000    12.260001    35.374100
O       3.660000     9.720001    12.680001    38.132855
O       5.730001     8.310001    13.850001    41.935662
O       4.790000    11.230001    14.710001    31.452280
Ti     10.880001     6.790000     7.550000    34.209125
O      10.370001     8.560001     7.000001    36.389913
O       9.820001     5.370000     7.890001    36.453350
Ti      6.680001     7.720001     8.310001    31.652122
O       8.340001     8.280000     8.850001    43.010287
Ti      9.390001     7.960001    10.680001    29.673881
O      11.070001     6.900000     9.500001    45.077598
O      10.330001     9.510001    10.070001    40.898767
O       8.730001     6.140000    10.560001    41.235274
Ti      2.990000     8.480001    11.510001    34.259325
O       8.250001     9.120001    11.580001    37.511578
Ti      8.850001     9.500001    13.240001    30.522955
O      10.380001     7.880001    12.200001    39.339881
O       9.590001    11.530001    12.670001    41.317487
O       8.480001     8.170001    14.360001    40.002274
Ti      5.310001    10.100001    13.390001    31.403171
O       7.440000    10.360001    14.200001    41.603273
Ti      7.810001    11.610001    15.640001    34.650898
O      10.480001     9.450001    14.330001    42.895226
O       8.290001    13.170001    14.790001    36.431257
O       8.910001    10.490001    16.440001    38.293989
O      12.760001     6.780000     7.590000    35.295263
Ti      9.590001     9.810001     8.120001    33.241647
O      11.190001    10.950001     8.190001    34.058860
Ti     11.850001    10.620001     9.720001    32.535066
O      13.050001     8.910001     9.810001    40.153653
Ti      9.300001    12.870001    10.070001    37.429460
O      11.240001    12.270001    10.540001    39.435762
Ti     11.480001    12.050001    12.690001    32.007615
O      12.360001    10.450001    12.040001    39.910438
Ti      9.070001    13.200001    13.130001    35.513095
O      10.780001    13.760001    13.030001    34.476084
O      12.040001    11.640001    14.390001    35.544780
O       6.510000     6.030001    14.930001    34.407398
O       8.210001     7.870001    16.830001    35.571951
O      13.310001     5.160000     9.900001    35.921301
Ti      9.880001     4.770001     9.710001    32.650879
O      11.140001     4.190000    11.060001    34.940328
Ti     12.480001     5.180000    11.710001    32.249352
O      13.120001     7.020000    11.510001    41.744538
Ti      6.940000     7.680001    15.370001    33.349853
O      11.780001     5.560000    13.470001    35.610860
Ti     11.270001     7.240000    13.860001    34.814570
O      12.810001     8.420001    13.970001    40.522320
Ti      9.760001     8.640001    16.090001    31.980060
O      10.630001     6.960001    15.530001    34.858534
O      11.450001     9.330001    16.610001    33.964552
Ti     13.100001     6.980000     9.430000    32.137270
Ti     13.270001     8.940001    11.790001    34.513173
O      14.890001     9.420001    12.100001    33.235729
Ti     12.140001     9.860001    15.070001    32.829290
O      15.350001     7.010000     9.740001    28.631357
H      15.760001     7.880001     9.860001     2.283694
H      15.540001     6.450001    10.540001     2.963078
O      13.020001     4.030000    15.340001    26.626477
H      12.500001     4.770001    15.010001     2.832565
H      12.370001     3.290000    15.430001     2.278655
O      15.310001    11.360001    13.590001    28.146212
H      16.250001    11.680001    13.540001     2.438170
H      15.120001    10.500001    12.970001     3.409494
O       6.830000     9.510001    18.540002    27.718570
H       7.680001     9.180001    18.110001     3.342385
H       6.860000     9.230001    19.500002     2.744271
O       6.270001    11.880001    16.650001    30.715014
H       4.990000    11.540001    15.660001     2.611348
H       6.330000    11.550001    17.580001     2.812893
O       7.200000    12.870001     7.000001    27.069597
H       7.980001    13.380001     7.460001     2.945808
H       6.570001    12.670001     7.760001     3.180844
O      14.180001    10.360001    15.850001    28.615377
H      14.640001     9.530001    16.160001     2.513385
H      14.780001    10.780001    15.130001     3.162798
O       3.160000     8.120001    15.540001    29.128773
H       2.320000     8.690001    15.310001     3.223679
H       3.130000     7.300001    15.020001     3.449985
O       1.190000     5.350001    12.790001    27.637971
H       0.450000     4.740000    13.010001     2.443041
H       1.920000     5.230001    13.450001     3.093210
O       7.280000     8.990001     4.860000    27.547726
H       7.020000     8.160000     5.340001     2.912242
H       7.770001     9.500001     5.560000     3.394030
O       5.600000    11.240001     5.690001    27.669252
H       6.190001    11.960001     5.980000     2.806045
H       6.120001    10.380001     5.620000     3.201888
O       3.630000    10.930001     7.340001    27.869038
H       3.430000    11.870001     7.590000     2.092711
H       4.320000    11.010001     6.570001     2.876754
O      13.520001    13.250001    12.340001    28.242031
H      13.570001    14.160001    12.650001     1.994996
H      14.180001    12.760001    12.900001     3.135561
O       8.490001     8.510000    20.630002    28.310667
H       8.480001     7.560001    20.320002     2.896208
H       8.510000     8.420001    21.650002     3.241073
O       4.240000     4.470000    16.570001    26.750486
H       4.990000     5.060000    16.550001     2.880230
H       4.530000     3.570000    16.290001     2.369303
O      10.770001     6.320000     5.240000    28.347277
H      11.610001     6.070001     4.890000     2.111855
H      10.480001     7.140001     4.740000     2.880331
O      13.960001     4.150000    12.700001    29.740859
H      13.850001     4.000001    13.740001     3.093236
H      14.910001     4.360000    12.530001     2.739115
O      15.980001     5.530001    12.330001    26.994687
H      15.760001     6.020000    13.190001     3.060188
H      16.950001     5.420001    12.310001     2.241530
O       8.450001    10.460001     6.830000    32.924020
H       7.910001    11.300001     6.940000     3.495360
H       8.080001     6.030001     7.040001     3.004073
O       6.960001     1.750000    10.180001    27.502997
H       7.130000     1.200000     9.370001     2.583398
H       7.670000     2.420000    10.180001     2.973018
O       9.830001     8.550000     4.090000    26.971681
H      10.020001     9.250001     4.780000     2.576159
H       8.870001     8.490001     4.260000     3.176567
O      15.530001     7.260001    14.250001    27.128605
H      14.680001     7.340001    14.680001     2.714106
H      15.490001     7.990001    13.600001     3.265019
O       3.040000     5.150001     9.600001    26.960661
H       3.770001     5.890000     9.660001     3.489500
H       2.630000     5.230001    10.500001     3.193841
O      13.710001    11.790001     9.670001    28.478272
H      14.700001    11.900001     9.660001     2.070607
H      13.410001    12.700001     9.950001     2.646693
O       8.270001     8.420001     1.460000    27.908431
H       7.480000     8.890001     1.790000     2.502245
H       8.820000     8.210001     2.210000     2.832199
O       5.290000     3.810001    10.350001    30.457119
H       5.460001     2.860000    10.140001     2.657440
H       4.500001     4.200000    10.000001     2.838616
O      11.510001     3.440000     8.610001    28.943631
H      12.470001     3.770001     8.780000     2.813154
H      11.310001     3.370000     7.650001     2.363193
O       1.280000     9.680001    14.280001    27.167416
H       1.110000     7.200000    12.320001     3.198264
H       2.170000     9.970001    14.080001     2.792667
O       5.480000     8.340001    16.650001    31.361877
H       5.800001     8.630001    17.570001     2.890738
H       4.470000     8.360000    16.340001     2.934246
O       3.790000     5.760001    14.150001    33.254812
H       1.060000     8.880001    13.750001     2.972859
H       3.920000     5.280000    14.980001     3.359810
  
   1 O      1.200000     8.040001    11.850001    31.665139
   2 O      7.310001     6.620001     6.900000    31.986599
   3 Ti     4.530000     9.800001     8.830001    33.561461
   4 O      5.290000     8.740000     7.580001    35.710715
   5 O      3.080000     9.190001     9.870001    36.579431
   6 Ti     6.760001    10.680001    10.440001    32.972718
   7 O      5.450000    11.360001     9.390001    35.719131
   8 O      6.080001     9.080001     9.900001    41.656549
   9 O      8.310001    13.660001    11.460001    36.326121
  10 O      6.130000    11.080001    12.140001    37.039424
  11 O      8.260001    11.340001     9.560001    40.159926
  12 O      9.320001    13.870001     8.720001    31.752993
  13 O      6.180001     6.210000     9.290001    36.650209
  14 Ti     7.030001     5.230001    10.550001    31.615726
  15 O      8.330001     3.870000    10.040001    34.869798
  16 O      4.170000     7.020000    11.840001    39.354960
  17 Ti     5.320000     6.460001    13.280001    32.428270
  18 O      6.570001     5.510000    12.260001    35.374100
  19 O      3.660000     9.720001    12.680001    38.132855
  20 O      5.730001     8.310001    13.850001    41.935662
  21 O      4.790000    11.230001    14.710001    31.452280
  22 Ti    10.880001     6.790000     7.550000    34.209125
  23 O     10.370001     8.560001     7.000001    36.389913
  24 O      9.820001     5.370000     7.890001    36.453350
  25 Ti     6.680001     7.720001     8.310001    31.652122
  26 O      8.340001     8.280000     8.850001    43.010287
  27 Ti     9.390001     7.960001    10.680001    29.673881
  28 O     11.070001     6.900000     9.500001    45.077598
  29 O     10.330001     9.510001    10.070001    40.898767
  30 O      8.730001     6.140000    10.560001    41.235274
  31 Ti     2.990000     8.480001    11.510001    34.259325
  32 O      8.250001     9.120001    11.580001    37.511578
  33 Ti     8.850001     9.500001    13.240001    30.522955
  34 O     10.380001     7.880001    12.200001    39.339881
  35 O      9.590001    11.530001    12.670001    41.317487
  36 O      8.480001     8.170001    14.360001    40.002274
  37 Ti     5.310001    10.100001    13.390001    31.403171
  38 O      7.440000    10.360001    14.200001    41.603273
  39 Ti     7.810001    11.610001    15.640001    34.650898
  40 O     10.480001     9.450001    14.330001    42.895226
  41 O      8.290001    13.170001    14.790001    36.431257
  42 O      8.910001    10.490001    16.440001    38.293989
  43 O     12.760001     6.780000     7.590000    35.295263
  44 Ti     9.590001     9.810001     8.120001    33.241647
  45 O     11.190001    10.950001     8.190001    34.058860
  46 Ti    11.850001    10.620001     9.720001    32.535066
  47 O     13.050001     8.910001     9.810001    40.153653
  48 Ti     9.300001    12.870001    10.070001    37.429460
  49 O     11.240001    12.270001    10.540001    39.435762
  50 Ti    11.480001    12.050001    12.690001    32.007615
  51 O     12.360001    10.450001    12.040001    39.910438
  52 Ti     9.070001    13.200001    13.130001    35.513095
  53 O     10.780001    13.760001    13.030001    34.476084
  54 O     12.040001    11.640001    14.390001    35.544780
  55 O      6.510000     6.030001    14.930001    34.407398
  56 O      8.210001     7.870001    16.830001    35.571951
  57 O     13.310001     5.160000     9.900001    35.921301
  58 Ti     9.880001     4.770001     9.710001    32.650879
  59 O     11.140001     4.190000    11.060001    34.940328
  60 Ti    12.480001     5.180000    11.710001    32.249352
  61 O     13.120001     7.020000    11.510001    41.744538
  62 Ti     6.940000     7.680001    15.370001    33.349853
  63 O     11.780001     5.560000    13.470001    35.610860
  64 Ti    11.270001     7.240000    13.860001    34.814570
  65 O     12.810001     8.420001    13.970001    40.522320
  66 Ti     9.760001     8.640001    16.090001    31.980060
  67 O     10.630001     6.960001    15.530001    34.858534
  68 O     11.450001     9.330001    16.610001    33.964552
  69 Ti    13.100001     6.980000     9.430000    32.137270
  70 Ti    13.270001     8.940001    11.790001    34.513173
  71 O     14.890001     9.420001    12.100001    33.235729
  72 Ti    12.140001     9.860001    15.070001    32.829290
  73 O     15.350001     7.010000     9.740001    28.631357
  74 H     15.760001     7.880001     9.860001     2.283694
  75 H     15.540001     6.450001    10.540001     2.963078
  76 O     13.020001     4.030000    15.340001    26.626477
  77 H     12.500001     4.770001    15.010001     2.832565
  78 H     12.370001     3.290000    15.430001     2.278655
  79 O     15.310001    11.360001    13.590001    28.146212
  80 H     16.250001    11.680001    13.540001     2.438170
  81 H     15.120001    10.500001    12.970001     3.409494
  82 O      6.830000     9.510001    18.540002    27.718570
  83 H      7.680001     9.180001    18.110001     3.342385
  84 H      6.860000     9.230001    19.500002     2.744271
  85 O      6.270001    11.880001    16.650001    30.715014
  86 H      4.990000    11.540001    15.660001     2.611348
  87 H      6.330000    11.550001    17.580001     2.812893
  88 O      7.200000    12.870001     7.000001    27.069597
  89 H      7.980001    13.380001     7.460001     2.945808
  90 H      6.570001    12.670001     7.760001     3.180844
  91 O     14.180001    10.360001    15.850001    28.615377
  92 H     14.640001     9.530001    16.160001     2.513385
  93 H     14.780001    10.780001    15.130001     3.162798
  94 O      3.160000     8.120001    15.540001    29.128773
  95 H      2.320000     8.690001    15.310001     3.223679
  96 H      3.130000     7.300001    15.020001     3.449985
  97 O      1.190000     5.350001    12.790001    27.637971
  98 H      0.450000     4.740000    13.010001     2.443041
  99 H      1.920000     5.230001    13.450001     3.093210
 100 O      7.280000     8.990001     4.860000    27.547726
 101 H      7.020000     8.160000     5.340001     2.912242
 102 H      7.770001     9.500001     5.560000     3.394030
 103 O      5.600000    11.240001     5.690001    27.669252
 104 H      6.190001    11.960001     5.980000     2.806045
 105 H      6.120001    10.380001     5.620000     3.201888
 106 O      3.630000    10.930001     7.340001    27.869038
 107 H      3.430000    11.870001     7.590000     2.092711
 108 H      4.320000    11.010001     6.570001     2.876754
 109 O     13.520001    13.250001    12.340001    28.242031
 110 H     13.570001    14.160001    12.650001     1.994996
 111 H     14.180001    12.760001    12.900001     3.135561
 112 O      8.490001     8.510000    20.630002    28.310667
 113 H      8.480001     7.560001    20.320002     2.896208
 114 H      8.510000     8.420001    21.650002     3.241073
 115 O      4.240000     4.470000    16.570001    26.750486
 116 H      4.990000     5.060000    16.550001     2.880230
 117 H      4.530000     3.570000    16.290001     2.369303
 118 O     10.770001     6.320000     5.240000    28.347277
 119 H     11.610001     6.070001     4.890000     2.111855
 120 H     10.480001     7.140001     4.740000     2.880331
 121 O     13.960001     4.150000    12.700001    29.740859
 122 H     13.850001     4.000001    13.740001     3.093236
 123 H     14.910001     4.360000    12.530001     2.739115
 124 O     15.980001     5.530001    12.330001    26.994687
 125 H     15.760001     6.020000    13.190001     3.060188
 126 H     16.950001     5.420001    12.310001     2.241530
 127 O      8.450001    10.460001     6.830000    32.924020
 128 H      7.910001    11.300001     6.940000     3.495360
 129 H      8.080001     6.030001     7.040001     3.004073
 130 O      6.960001     1.750000    10.180001    27.502997
 131 H      7.130000     1.200000     9.370001     2.583398
 132 H      7.670000     2.420000    10.180001     2.973018
 133 O      9.830001     8.550000     4.090000    26.971681
 134 H     10.020001     9.250001     4.780000     2.576159
 135 H      8.870001     8.490001     4.260000     3.176567
 136 O     15.530001     7.260001    14.250001    27.128605
 137 H     14.680001     7.340001    14.680001     2.714106
 138 H     15.490001     7.990001    13.600001     3.265019
 139 O      3.040000     5.150001     9.600001    26.960661
 140 H      3.770001     5.890000     9.660001     3.489500
 141 H      2.630000     5.230001    10.500001     3.193841
 142 O     13.710001    11.790001     9.670001    28.478272
 143 H     14.700001    11.900001     9.660001     2.070607
 144 H     13.410001    12.700001     9.950001     2.646693
 145 O      8.270001     8.420001     1.460000    27.908431
 146 H      7.480000     8.890001     1.790000     2.502245
 147 H      8.820000     8.210001     2.210000     2.832199
 148 O      5.290000     3.810001    10.350001    30.457119
 149 H      5.460001     2.860000    10.140001     2.657440
 150 H      4.500001     4.200000    10.000001     2.838616
 151 O     11.510001     3.440000     8.610001    28.943631
 152 H     12.470001     3.770001     8.780000     2.813154
 153 H     11.310001     3.370000     7.650001     2.363193
 154 O      1.280000     9.680001    14.280001    27.167416
 155 H      1.110000     7.200000    12.320001     3.198264
 156 H      2.170000     9.970001    14.080001     2.792667
 157 O      5.480000     8.340001    16.650001    31.361877
 158 H      5.800001     8.630001    17.570001     2.890738
 159 H      4.470000     8.360000    16.340001     2.934246
 160 O      3.790000     5.760001    14.150001    33.254812
 161 H      1.060000     8.880001    13.750001     2.972859
 162 H      3.920000     5.280000    14.980001     3.359810
